*KEYWORD
*MAT_NULL
$#     mid        ro        pc        mu     terod     cerod        ym        pr
         8     0.001                                                            
*SECTION_SHELL
$#   secid    elform      shrf       nip     propt   qr/irid     icomp     setyp
         2         4    0.8333         3       1.0         0         0         1
$#      t1        t2        t3        t4      nloc     marea      idof    edgset
       1.0       0.0       0.0       0.0       0.0       0.0       0.0         0
*PART
$#                                                             heading
mitral-valve                                                          
$#     pid     secid       mid     eosid      hgid      grav    adpopt      tmid
         8         2         8                                                  
*CONSTRAINED_INTERPOLATION
$#    icid      dnid      ddof      cidd      ityp     idnsw       fgm
         2     61096       123                   1         0         0
$#    inid      idof    twghtx    twghty    twghtz    rwghtx    rwghty    rwghtz
         2       123       1.0       1.0       1.0       1.0       1.0       1.0
*PART
$#                                                             heading
aortic-valve                                                          
$#     pid     secid       mid     eosid      hgid      grav    adpopt      tmid
         9         2         8                                                  
*CONSTRAINED_INTERPOLATION
$#    icid      dnid      ddof      cidd      ityp     idnsw       fgm
         3     61097       123                   1         0         0
$#    inid      idof    twghtx    twghty    twghtz    rwghtx    rwghty    rwghtz
         3       123       1.0       1.0       1.0       1.0       1.0       1.0
*PART
$#                                                             heading
tricuspid-valve                                                       
$#     pid     secid       mid     eosid      hgid      grav    adpopt      tmid
        10         2         8                                                  
*CONSTRAINED_INTERPOLATION
$#    icid      dnid      ddof      cidd      ityp     idnsw       fgm
         4     61098       123                   1         0         0
$#    inid      idof    twghtx    twghty    twghtz    rwghtx    rwghty    rwghtz
         4       123       1.0       1.0       1.0       1.0       1.0       1.0
*PART
$#                                                             heading
pulmonary-valve                                                       
$#     pid     secid       mid     eosid      hgid      grav    adpopt      tmid
        11         2         8                                                  
*CONSTRAINED_INTERPOLATION
$#    icid      dnid      ddof      cidd      ityp     idnsw       fgm
         5     61099       123                   1         0         0
$#    inid      idof    twghtx    twghty    twghtz    rwghtx    rwghty    rwghtz
         5       123       1.0       1.0       1.0       1.0       1.0       1.0
*PART
$#                                                             heading
mitral-valve-atrium                                                   
$#     pid     secid       mid     eosid      hgid      grav    adpopt      tmid
        12         2         8                                                  
*CONSTRAINED_INTERPOLATION
$#    icid      dnid      ddof      cidd      ityp     idnsw       fgm
         6     61100       123                   1         0         0
$#    inid      idof    twghtx    twghty    twghtz    rwghtx    rwghty    rwghtz
         6       123       1.0       1.0       1.0       1.0       1.0       1.0
*PART
$#                                                             heading
left-atrium-appendage                                                 
$#     pid     secid       mid     eosid      hgid      grav    adpopt      tmid
        13         2         8                                                  
*CONSTRAINED_INTERPOLATION
$#    icid      dnid      ddof      cidd      ityp     idnsw       fgm
         7     61101       123                   1         0         0
$#    inid      idof    twghtx    twghty    twghtz    rwghtx    rwghty    rwghtz
         7       123       1.0       1.0       1.0       1.0       1.0       1.0
*PART
$#                                                             heading
right-inferior-pulmonary-vein                                         
$#     pid     secid       mid     eosid      hgid      grav    adpopt      tmid
        14         2         8                                                  
*CONSTRAINED_INTERPOLATION
$#    icid      dnid      ddof      cidd      ityp     idnsw       fgm
         8     61102       123                   1         0         0
$#    inid      idof    twghtx    twghty    twghtz    rwghtx    rwghty    rwghtz
         8       123       1.0       1.0       1.0       1.0       1.0       1.0
*PART
$#                                                             heading
left-inferior-pulmonary-vein                                          
$#     pid     secid       mid     eosid      hgid      grav    adpopt      tmid
        15         2         8                                                  
*CONSTRAINED_INTERPOLATION
$#    icid      dnid      ddof      cidd      ityp     idnsw       fgm
         9     61103       123                   1         0         0
$#    inid      idof    twghtx    twghty    twghtz    rwghtx    rwghty    rwghtz
         9       123       1.0       1.0       1.0       1.0       1.0       1.0
*PART
$#                                                             heading
left-superior-pulmonary-vein                                          
$#     pid     secid       mid     eosid      hgid      grav    adpopt      tmid
        16         2         8                                                  
*CONSTRAINED_INTERPOLATION
$#    icid      dnid      ddof      cidd      ityp     idnsw       fgm
        10     61104       123                   1         0         0
$#    inid      idof    twghtx    twghty    twghtz    rwghtx    rwghty    rwghtz
        10       123       1.0       1.0       1.0       1.0       1.0       1.0
*PART
$#                                                             heading
right-superior-pulmonary-vein                                         
$#     pid     secid       mid     eosid      hgid      grav    adpopt      tmid
        17         2         8                                                  
*CONSTRAINED_INTERPOLATION
$#    icid      dnid      ddof      cidd      ityp     idnsw       fgm
        11     61105       123                   1         0         0
$#    inid      idof    twghtx    twghty    twghtz    rwghtx    rwghty    rwghtz
        11       123       1.0       1.0       1.0       1.0       1.0       1.0
*PART
$#                                                             heading
tricuspid-valve-atrium                                                
$#     pid     secid       mid     eosid      hgid      grav    adpopt      tmid
        18         2         8                                                  
*CONSTRAINED_INTERPOLATION
$#    icid      dnid      ddof      cidd      ityp     idnsw       fgm
        12     61106       123                   1         0         0
$#    inid      idof    twghtx    twghty    twghtz    rwghtx    rwghty    rwghtz
        12       123       1.0       1.0       1.0       1.0       1.0       1.0
*PART
$#                                                             heading
superior-vena-cava                                                    
$#     pid     secid       mid     eosid      hgid      grav    adpopt      tmid
        19         2         8                                                  
*CONSTRAINED_INTERPOLATION
$#    icid      dnid      ddof      cidd      ityp     idnsw       fgm
        13     61107       123                   1         0         0
$#    inid      idof    twghtx    twghty    twghtz    rwghtx    rwghty    rwghtz
        13       123       1.0       1.0       1.0       1.0       1.0       1.0
*PART
$#                                                             heading
inferior-vena-cava                                                    
$#     pid     secid       mid     eosid      hgid      grav    adpopt      tmid
        20         2         8                                                  
*CONSTRAINED_INTERPOLATION
$#    icid      dnid      ddof      cidd      ityp     idnsw       fgm
        14     61108       123                   1         0         0
$#    inid      idof    twghtx    twghty    twghtz    rwghtx    rwghty    rwghtz
        14       123       1.0       1.0       1.0       1.0       1.0       1.0
*ELEMENT_SHELL
$#   eid     pid      n1      n2      n3      n4      n5      n6      n7      n8
       1       8   30205   30604   61096                                        
       2       8   38655   38644   61096                                        
       3       8   32439   32752   61096                                        
       4       8   30831   31230   61096                                        
       5       8   38015   38366   61096                                        
       6       8   33841   34349   61096                                        
       7       8   38533   38672   61096                                        
       8       8   37517   37786   61096                                        
       9       8   35009   35646   61096                                        
      10       8   31230   31745   61096                                        
      11       8   32752   33276   61096                                        
      12       8   38753   38655   61096                                        
      13       8   37786   38015   61096                                        
      14       8   36978   37517   61096                                        
      15       8   38366   38533   61096                                        
      16       8   30604   30831   61096                                        
      17       8   35646   36091   61096                                        
      18       8   36091   36480   61096                                        
      19       8   34349   35009   61096                                        
      20       8   38672   38753   61096                                        
$ ... 54 like lines cut
*ELEMENT_SHELL
$#   eid     pid      n1      n2      n3      n4      n5      n6      n7      n8
      75       9   21031   20372   61097                                        
      76       9   20372   21728   61097                                        
      77       9   28365   27786   61097                                        
      78       9   22870   22151   61097                                        
      79       9   32591   32104   61097                                        
      80       9   20217   20319   61097                                        
      81       9   24362   24068   61097                                        
      82       9   22829   23792   61097                                        
      83       9   27600   28105   61097                                        
      84       9   32421   32361   61097                                        
      85       9   22027   22346   61097                                        
      86       9   25273   25895   61097                                        
      87       9   20071   20429   61097                                        
      88       9   29768   29467   61097                                        
      89       9   31017   30439   61097                                        
      90       9   24230   24732   61097                                        
      91       9   32554   32648   61097                                        
      92       9   30618   31090   61097                                        
      93       9   22151   22285   61097                                        
      94       9   22346   22829   61097                                        
$ ... 37 like lines cut
*ELEMENT_SHELL
$#   eid     pid      n1      n2      n3      n4      n5      n6      n7      n8
     132      10   10359   10415   61098                                        
     133      10   10025   10359   61098                                        
     134      10   14405   14189   61098                                        
     135      10   20167   20513   61098                                        
     136      10   20156   19794   61098                                        
     137      10   19572   19107   61098                                        
     138      10   15729   16324   61098                                        
     139      10   10914   11243   61098                                        
     140      10   19022   18729   61098                                        
     141      10   11794   12102   61098                                        
     142      10   17339   17786   61098                                        
     143      10   16458   16951   61098                                        
     144      10   14252   14852   61098                                        
     145      10   20654   20629   61098                                        
     146      10   16005   15485   61098                                        
     147      10   18385   18073   61098                                        
     148      10   18910   19255   61098                                        
     149      10   16910   16648   61098                                        
     150      10   20638   20597   61098                                        
     151      10   18243   18499   61098                                        
$ ... 75 like lines cut
*ELEMENT_SHELL
$#   eid     pid      n1      n2      n3      n4      n5      n6      n7      n8
     227      11   23421   24115   61099                                        
     228      11   21733   21569   61099                                        
     229      11   21335   21416   61099                                        
     230      11   21500   21830   61099                                        
     231      11   22102   22779   61099                                        
     232      11   22779   23421   61099                                        
     233      11   21416   21500   61099                                        
     234      11   21830   22102   61099                                        
     235      11   22224   21733   61099                                        
     236      11   40243   39564   61099                                        
     237      11   39564   39581   61099                                        
     238      11   32959   32124   61099                                        
     239      11   36430   36458   61099                                        
     240      11   36458   36999   61099                                        
     241      11   37324   37660   61099                                        
     242      11   39018   39635   61099                                        
     243      11   39665   39968   61099                                        
     244      11   27389   28024   61099                                        
     245      11   39674   39845   61099                                        
     246      11   38306   38829   61099                                        
$ ... 53 like lines cut
*ELEMENT_SHELL
$#   eid     pid      n1      n2      n3      n4      n5      n6      n7      n8
     300      12   34901   34924   61100                                        
     301      12   34924   34565   61100                                        
     302      12   28506   28015   61100                                        
     303      12   28015   27619   61100                                        
     304      12   36587   36886   61100                                        
     305      12   26794   26588   61100                                        
     306      12   26301   26467   61100                                        
     307      12   36428   36432   61100                                        
     308      12   27671   27806   61100                                        
     309      12   35855   36234   61100                                        
     310      12   26368   26502   61100                                        
     311      12   34194   34940   61100                                        
     312      12   35746   35118   61100                                        
     313      12   27153   27521   61100                                        
     314      12   28222   29016   61100                                        
     315      12   37002   37010   61100                                        
     316      12   27483   27241   61100                                        
     317      12   36844   36649   61100                                        
     318      12   29209   28682   61100                                        
     319      12   27241   26794   61100                                        
$ ... 48 like lines cut
*ELEMENT_SHELL
$#   eid     pid      n1      n2      n3      n4      n5      n6      n7      n8
     368      13   24499   23794   61101                                        
     369      13   24579   24499   61101                                        
     370      13   28571   28935   61101                                        
     371      13   26501   27517   61101                                        
     372      13   34047   34013   61101                                        
     373      13   32501   33064   61101                                        
     374      13   25096   25748   61101                                        
     375      13   21301   22403   61101                                        
     376      13   23794   22982   61101                                        
     377      13   32801   32452   61101                                        
     378      13   31485   30888   61101                                        
     379      13   28935   30046   61101                                        
     380      13   30956   31792   61101                                        
     381      13   22197   21325   61101                                        
     382      13   23280   24179   61101                                        
     383      13   20692   20087   61101                                        
     384      13   26592   25522   61101                                        
     385      13   19711   19545   61101                                        
     386      13   30105   29392   61101                                        
     387      13   19698   19922   61101                                        
$ ... 29 like lines cut
*ELEMENT_SHELL
$#   eid     pid      n1      n2      n3      n4      n5      n6      n7      n8
     417      14    4997    4960   61102                                        
     418      14    7864    7820   61102                                        
     419      14    7820    8103   61102                                        
     420      14    5477    5711   61102                                        
     421      14    6493    6752   61102                                        
     422      14    7508    7733   61102                                        
     423      14    5922    6210   61102                                        
     424      14    7093    7319   61102                                        
     425      14    5350    5477   61102                                        
     426      14    6752    7093   61102                                        
     427      14    7319    7508   61102                                        
     428      14    5711    5922   61102                                        
     429      14    6210    6493   61102                                        
     430      14    7733    7864   61102                                        
     431      14    8103    8074   61102                                        
     432      14    5180    5350   61102                                        
     433      14    5412    5396   61102                                        
     434      14    5866    5603   61102                                        
     435      14    8029    7843   61102                                        
     436      14    4992    4995   61102                                        
$ ... 21 like lines cut
*ELEMENT_SHELL
$#   eid     pid      n1      n2      n3      n4      n5      n6      n7      n8
     458      15   15692   16108   61103                                        
     459      15   16108   15832   61103                                        
     460      15   22520   22514   61103                                        
     461      15   16829   17625   61103                                        
     462      15   22204   22333   61103                                        
     463      15   15832   16423   61103                                        
     464      15   15586   15692   61103                                        
     465      15   22051   22480   61103                                        
     466      15   17993   18730   61103                                        
     467      15   20556   21077   61103                                        
     468      15   15430   15586   61103                                        
     469      15   17625   17993   61103                                        
     470      15   22333   22520   61103                                        
     471      15   22480   22204   61103                                        
     472      15   16423   16829   61103                                        
     473      15   21643   22051   61103                                        
     474      15   18730   19507   61103                                        
     475      15   21077   21643   61103                                        
     476      15   15904   15836   61103                                        
     477      15   19334   18398   61103                                        
$ ... 16 like lines cut
*ELEMENT_SHELL
$#   eid     pid      n1      n2      n3      n4      n5      n6      n7      n8
     494      16   13638   13514   61104                                        
     495      16   16928   17226   61104                                        
     496      16   21673   21348   61104                                        
     497      16   13896   13573   61104                                        
     498      16   16079   15154   61104                                        
     499      16   18567   17660   61104                                        
     500      16   19101   19777   61104                                        
     501      16   20957   20397   61104                                        
     502      16   13573   13638   61104                                        
     503      16   21348   20957   61104                                        
     504      16   16806   16079   61104                                        
     505      16   20397   19827   61104                                        
     506      16   18138   19101   61104                                        
     507      16   13729   14341   61104                                        
     508      16   21609   21673   61104                                        
     509      16   20510   21509   61104                                        
     510      16   14211   13896   61104                                        
     511      16   19777   20510   61104                                        
     512      16   17660   16806   61104                                        
     513      16   17226   18138   61104                                        
$ ... 11 like lines cut
*ELEMENT_SHELL
$#   eid     pid      n1      n2      n3      n4      n5      n6      n7      n8
     525      17    5229    5572   61105                                        
     526      17    7398    7268   61105                                        
     527      17    7145    7168   61105                                        
     528      17    5991    6373   61105                                        
     529      17    4573    4693   61105                                        
     530      17    5828    5588   61105                                        
     531      17    6741    6958   61105                                        
     532      17    4909    5132   61105                                        
     533      17    4405    4343   61105                                        
     534      17    5352    5178   61105                                        
     535      17    4883    4532   61105                                        
     536      17    4357    4458   61105                                        
     537      17    5132    5229   61105                                        
     538      17    7268    7361   61105                                        
     539      17    7168    7249   61105                                        
     540      17    5588    5352   61105                                        
     541      17    6561    6231   61105                                        
     542      17    4343    4357   61105                                        
     543      17    5572    5786   61105                                        
     544      17    7361    7145   61105                                        
$ ... 11 like lines cut
*ELEMENT_SHELL
$#   eid     pid      n1      n2      n3      n4      n5      n6      n7      n8
     556      18   18695   18360   61106                                        
     557      18   16421   16836   61106                                        
     558      18   19149   19688   61106                                        
     559      18   15856   15736   61106                                        
     560      18   19682   19883   61106                                        
     561      18   16236   16421   61106                                        
     562      18   19840   19998   61106                                        
     563      18   17631   18064   61106                                        
     564      18   17306   17474   61106                                        
     565      18   15420   15856   61106                                        
     566      18   15971   16236   61106                                        
     567      18   17474   17631   61106                                        
     568      18   16836   17306   61106                                        
     569      18   18554   18821   61106                                        
     570      18   19998   19682   61106                                        
     571      18   19688   19840   61106                                        
     572      18   18064   18058   61106                                        
     573      18   18985   19149   61106                                        
     574      18   15736   15971   61106                                        
     575      18   18607   18554   61106                                        
$ ... 86 like lines cut
*ELEMENT_SHELL
$#   eid     pid      n1      n2      n3      n4      n5      n6      n7      n8
     662      19    3832    3866   61107                                        
     663      19    6221    6863   61107                                        
     664      19    7602    8216   61107                                        
     665      19    3616    3492   61107                                        
     666      19    4759    4466   61107                                        
     667      19    4826    5084   61107                                        
     668      19    5374    5772   61107                                        
     669      19    5859    5581   61107                                        
     670      19    3606    3832   61107                                        
     671      19    5772    6221   61107                                        
     672      19    3866    4107   61107                                        
     673      19    4466    4014   61107                                        
     674      19    4540    4826   61107                                        
     675      19    5084    5374   61107                                        
     676      19    3818    3493   61107                                        
     677      19    6863    7602   61107                                        
     678      19    5581    5050   61107                                        
     679      19    8216    8719   61107                                        
     680      19    4107    4105   61107                                        
     681      19    5050    4759   61107                                        
$ ... 20 like lines cut
*ELEMENT_SHELL
$#   eid     pid      n1      n2      n3      n4      n5      n6      n7      n8
     702      20    6598    6343   61108                                        
     703      20    7475    7024   61108                                        
     704      20    6891    7416   61108                                        
     705      20    6395    6526   61108                                        
     706      20    8803    8496   61108                                        
     707      20    7886    7475   61108                                        
     708      20    6526    6891   61108                                        
     709      20    8496    7886   61108                                        
     710      20    9255    8803   61108                                        
     711      20    9179    9921   61108                                        
     712      20    7902    8512   61108                                        
     713      20   12285   12951   61108                                        
     714      20   13505   13970   61108                                        
     715      20    7416    7902   61108                                        
     716      20   11270   11776   61108                                        
     717      20    8512    9179   61108                                        
     718      20   11000   10287   61108                                        
     719      20   12432   11742   61108                                        
     720      20   13131   12432   61108                                        
     721      20    9733    9255   61108                                        
$ ... 15 like lines cut
*END