                                                                         
                    ls-dyna smp d DEV R16.0_41_6ea2cd72 date 08/29/2024


 **********************************************************************

 steady state solution

     minimum temperature =     -1.00000   at node    58545
     maximum temperature =      2.00000   at node    23497

*TEMPERATURE_NODE     numnode=     58555   thkshl=         0
  node   temperature      x-flux      y-flux      z-flux

       1     0.40511 -1.4926E-01  1.4336E-02 -6.9819E-02
       2     0.21578 -1.6510E-01 -1.7567E-02 -6.5122E-02
       3     0.30974 -1.1721E-01  9.3824E-02 -5.3431E-02
       4     0.16103 -1.4511E-01 -2.6758E-03 -5.9044E-02
       5    -0.41108 -2.0478E-01 -1.7031E-01 -1.1579E-01
       6    -0.19390 -2.0664E-01 -1.7818E-01 -1.3086E-01
       7     0.25087 -2.2740E-01 -1.9505E-01 -1.2095E-01
       8    -0.36864 -2.0265E-01 -1.7980E-01 -1.1474E-01
       9    -0.58291 -2.0874E-01 -1.7184E-01 -5.7689E-02
      10    -0.46374 -2.2284E-01 -1.6074E-01 -8.0309E-02
      11    -0.56226 -2.0369E-01 -1.5974E-01 -6.7881E-02
      12  4.3243E-02 -2.3383E-01 -1.6552E-01 -6.6666E-02
      13     0.14141 -1.7695E-01 -9.4987E-02 -2.0107E-01
      14    -0.32225 -1.7360E-01 -9.8345E-02 -1.9098E-01
      15     0.16752 -1.7889E-01 -9.1414E-02 -1.9967E-01
      16     0.23644 -1.8308E-01 -1.0172E-01 -1.9801E-01
      17     0.76291 -1.1242E-01 -2.3249E-01  1.8581E-01
      18  9.6191E-02 -8.8388E-02 -2.2061E-01  1.6668E-01
      19     0.67372 -9.1890E-02 -2.3194E-01  1.9541E-01
      20     0.48436 -9.3979E-02 -2.1751E-01  1.7800E-01
      21     1.62674 -2.4937E-02  1.6204E-01 -6.8669E-02
      22     1.53955 -1.5194E-02  1.6096E-01 -6.5164E-02
      23     1.22096 -1.8979E-02  1.4570E-01 -5.9348E-02
      24     1.62108 -1.9382E-02  1.6165E-01 -5.9798E-02
      25     1.34790 -1.0664E-02  1.5175E-01 -5.5839E-02
      26 -7.6448E-02 -1.9924E-01 -9.0122E-02 -1.8408E-01
      27    -0.24437 -2.1349E-01 -1.0153E-01 -1.8176E-01
      28    -0.50309 -2.3131E-01 -1.1249E-01 -1.7372E-01
      29    -0.14512 -2.1097E-01 -9.6280E-02 -1.4326E-01
      30     0.22844 -8.7658E-03  1.0034E-01 -5.5455E-02
      31     0.36976 -4.3253E-03  1.0736E-01 -5.9804E-02
      32     0.47456 -5.1303E-03  1.1125E-01 -5.4404E-02
      33     0.51066 -9.1941E-03  1.1657E-01 -6.1542E-02
      34     0.75264 -5.1552E-02 -3.4358E-01 -2.5728E-02
      35     0.30593 -4.7485E-02 -3.3864E-01 -2.7878E-02
      36     0.43955 -6.0347E-02 -3.4123E-01 -1.8943E-02
      37     0.55941 -4.6750E-02 -3.3857E-01 -1.2013E-02
      38     0.91648 -1.7273E-01 -1.6573E-01  7.1491E-02
      39     0.90550 -1.6844E-01 -1.5845E-01  5.8250E-02
      40     1.29828 -1.6912E-01 -1.4857E-01  6.4216E-02
      41     1.46692 -1.9041E-01 -1.5711E-01  7.4605E-02
      42     1.03261 -5.4832E-02  1.4387E-01 -5.6464E-02
      43     1.26840 -4.5734E-02  1.4614E-01 -6.3579E-02
      44     1.57689 -5.1293E-02  1.6010E-01 -7.0322E-02
      45     1.49300 -5.0147E-02  1.5362E-01 -7.1021E-02
      46    -0.23549 -2.4136E-01 -1.4622E-01 -2.8930E-02
      47 -9.3638E-02 -2.0547E-01 -1.3613E-01 -1.2315E-02
      48     0.23883 -2.0391E-01 -1.2265E-01 -8.8225E-02
      49  3.7478E-02 -2.4363E-01 -1.8706E-01 -9.2797E-02
      50     0.90477 -1.5434E-02  1.3090E-01 -5.2266E-02
      51     1.05269 -1.0943E-02  1.3932E-01 -5.9222E-02
      52     0.72101 -1.2304E-02  1.2264E-01 -5.5931E-02
      53     0.94305 -3.0713E-03  1.3503E-01 -5.1528E-02
      54     1.75494  2.3046E-02 -1.1647E-01  1.2777E-01
      55     1.25666  2.0366E-02 -1.2292E-01  1.2534E-01
      56     1.62521  1.2595E-02 -1.2009E-01  1.2949E-01
      57     1.60629  2.8048E-02 -1.0976E-01  1.3206E-01
      58     0.57156 -2.3030E-01 -9.5187E-02 -2.0007E-01
      59     0.42376 -2.2370E-01 -1.0515E-01 -1.9094E-01
      60     0.14400 -2.0919E-01 -9.6856E-02 -1.9712E-01
      61 -2.9901E-02 -2.1851E-01 -1.0568E-01 -1.9479E-01
      62     0.84117 -1.9779E-02  1.2813E-01 -5.9386E-02
      63     0.88340 -2.6696E-02  1.2908E-01 -6.6391E-02
      64     0.68773 -1.7811E-02  1.1980E-01 -6.1779E-02
      65     0.90330 -1.6164E-02  1.3207E-01 -6.4909E-02
      66     0.95638 -4.3385E-02  1.2468E-01 -8.3655E-02
      67     0.81184 -3.7788E-02  1.1940E-01 -8.6723E-02
      68     0.79868 -4.5503E-02  1.1773E-01 -8.5421E-02
      69     0.58787 -4.1774E-02  1.1385E-01 -7.7835E-02
      70     0.89456 -4.9017E-02  1.0073E-01 -1.1202E-01
      71     1.11597 -5.7052E-02  1.0021E-01 -1.2629E-01
      72     1.13924 -4.6696E-02  1.1053E-01 -1.2541E-01
      73     1.41912 -5.6340E-02  1.2018E-01 -1.2737E-01
      74     1.12143 -4.9797E-02  1.3157E-01 -7.8824E-02
      75     1.29741 -5.7935E-02  1.3628E-01 -8.3393E-02
      76     0.93059 -5.3163E-02  1.2541E-01 -7.8267E-02
      77     1.12484 -5.5004E-02  1.2922E-01 -8.3588E-02
      78     1.33497 -2.7699E-02  1.4559E-01 -7.6721E-02
      79     1.54537 -3.0155E-02  1.5268E-01 -8.4718E-02
      80     1.16442 -2.3867E-02  1.3966E-01 -7.9994E-02
      81     1.28412 -1.6964E-02  1.4691E-01 -7.4441E-02
      82     1.36530  1.8562E-02  1.5502E-01 -4.3888E-02
      83     1.57500  2.4349E-02  1.6287E-01 -4.4269E-02
      84     1.21391  1.9703E-02  1.4753E-01 -3.9697E-02
      85     1.62508  1.2852E-02  1.6161E-01 -4.7811E-02
      86     1.32196 -4.0760E-02  1.3803E-01 -9.1488E-02
      87     1.66875 -4.7242E-02  1.4732E-01 -9.6791E-02
      88     1.52427 -4.2578E-02  1.4597E-01 -8.7426E-02
      89     1.52512 -4.8961E-02  1.4203E-01 -9.0268E-02
      90     1.65967  1.5254E-02  1.6460E-01 -4.4947E-02
      91     1.28657  9.2268E-03  1.4941E-01 -4.4515E-02
      92     1.28393  6.7361E-03  1.5115E-01 -4.8714E-02
      93     0.50542 -1.4740E-02  4.1663E-02 -1.4709E-01
      94     0.55788 -6.5502E-03  4.5746E-02 -1.5355E-01
      95     0.75677 -1.3043E-02  4.7185E-02 -1.6361E-01
      96     0.56650 -1.5753E-02  3.5795E-02 -1.5004E-01
      97    -0.11721 -9.3527E-02 -2.3290E-01  1.9058E-01
      98    -0.25049 -1.1500E-01 -2.1991E-01  1.8929E-01
      99    -0.30071 -1.4160E-01 -2.1993E-01  1.7584E-01
     100     0.20296 -8.2940E-02 -1.9040E-01  1.6418E-01
     101     1.18118 -4.5198E-02  1.2420E-01 -1.0260E-01
     102     0.90158 -4.2327E-02  1.1352E-01 -1.0015E-01
     103     1.17877 -5.1014E-02  1.2348E-01 -9.9508E-02
     104     0.85814 -4.1939E-02  1.1589E-01 -9.2826E-02
     105     1.33091 -6.4096E-02  1.2053E-01 -1.0528E-01
     106     1.65788 -6.4624E-02  1.3079E-01 -1.0740E-01
     107     1.60784 -7.0994E-02  1.2682E-01 -1.1212E-01
     108     1.61056 -6.9341E-02  1.2530E-01 -1.1588E-01
     109     1.50608 -3.0849E-01 -3.4482E-01 -2.5203E-01
     110     2.00000 -3.3860E-01 -3.8296E-01 -2.4382E-01
     111     2.00000 -3.0855E-01 -3.2985E-01 -2.9077E-01
     112     2.00000 -2.9899E-01 -2.4902E-01 -2.8870E-01
     113     1.36425 -1.8570E-01  8.8736E-02 -1.4111E-01
     114     1.36020 -1.6975E-01  1.1255E-01 -1.2531E-01
     115     1.48467 -1.6066E-01  9.8368E-02 -1.4649E-01
     116     1.05582 -1.4989E-01  8.0099E-02 -1.1507E-01
     117    -0.27990 -9.4860E-02 -1.9749E-01  1.0692E-01
     118    -0.45605 -6.2289E-02 -2.1582E-01  1.4470E-01
     119 -3.3324E-02 -5.3857E-02 -1.6895E-01  1.1982E-01
     120    -0.20686 -9.4712E-02 -1.8064E-01  1.0485E-01
     121     0.50966 -2.8993E-02  1.1514E-01 -6.3447E-02
     122     0.25936 -3.1169E-02  1.0554E-01 -5.7941E-02
     123     0.24502 -3.0957E-02  1.0643E-01 -6.3859E-02
     124     0.55098 -3.4300E-02  1.1694E-01 -6.3211E-02
     125     0.78682 -3.6739E-02  4.5233E-02 -1.5724E-01
     126     1.10497 -4.9684E-02  4.8278E-02 -1.7558E-01
     127     0.64963 -4.3167E-02  3.8095E-02 -1.4928E-01
     128     0.93620 -5.0196E-02  3.6199E-02 -1.6675E-01
     129     1.25924  1.8896E-02 -3.0147E-01  5.2056E-02
     130     1.39881  1.5999E-02 -2.8949E-01  3.5843E-02
     131     1.30283  3.0318E-02 -2.5009E-01  5.3353E-02
     132     0.78929 -7.6212E-03 -2.5954E-01  5.2909E-02
     133     1.43960 -1.3120E-01 -3.3834E-02 -2.4255E-01
     134     2.00000 -1.4018E-01 -3.0216E-02 -2.5725E-01
     135     2.00000 -1.0326E-01 -9.0328E-03 -2.7144E-01
     136     1.36611 -1.0474E-01 -1.4052E-02 -2.4318E-01
     137     2.00000 -8.7961E-02  6.7549E-03 -2.6002E-01
     138     1.41078 -1.3732E-01 -2.9811E-02 -2.3716E-01
     139     1.17225 -3.9103E-02  1.1875E-01 -1.2120E-01
     140     0.79088 -3.1695E-02  1.0844E-01 -1.0836E-01
     141     1.16080 -3.6425E-02  1.2222E-01 -1.1311E-01
     142     0.96505 -3.0068E-02  1.1538E-01 -1.1392E-01
     143    -0.46520 -9.1345E-02 -2.3474E-01  1.5667E-01
     144    -1.00000 -8.9475E-02 -2.2521E-01  1.3558E-01
     145    -1.00000 -7.4320E-02 -2.2787E-01  1.5113E-01
     146    -0.47698 -8.8580E-02 -2.2065E-01  1.4268E-01
     147    -0.38998 -7.9835E-02 -2.3622E-01  1.7213E-01
     148  7.5545E-02 -7.9321E-02 -1.2845E-01  1.0376E-01
     149 -7.5766E-02 -1.3397E-01 -1.1564E-01  6.6409E-02
     150    -0.27188 -1.3357E-01 -1.9867E-01  1.4373E-01
     151 -3.0376E-02 -9.4375E-02 -1.6936E-01  1.3472E-01
     152    -1.00000 -2.0319E-01 -1.4642E-01 -1.2930E-01
     153    -1.00000 -2.1408E-01 -1.3734E-01 -1.3808E-01
     154    -1.00000 -2.0628E-01 -1.4027E-01 -1.4526E-01
     155    -0.50354 -2.0903E-01 -1.4535E-01 -1.2554E-01
     156  5.6089E-02 -6.4950E-02 -1.3178E-01  8.8390E-02
     157 -4.8780E-03 -7.6264E-02 -1.3185E-01  8.8839E-02
     158    -0.10389 -1.1502E-01 -9.9165E-02  3.4058E-02
     159    -0.22471 -1.2172E-01 -1.6343E-01  8.4882E-02
     160     2.00000 -5.5632E-02  1.4836E-01 -1.0088E-01
     161     2.00000 -5.1255E-02  1.5077E-01 -9.3162E-02
     162     1.70297 -5.4573E-02  1.4259E-01 -9.7388E-02
     163     0.99671  1.7688E-01  5.3225E-02 -1.1800E-01
     164     1.45320  1.9156E-01  6.3716E-02 -1.3255E-01
     165     1.52435  2.0163E-01  6.1964E-02 -1.2809E-01
     166     1.03228  1.8721E-01  5.2276E-02 -1.0483E-01
     167     1.49081 -1.2597E-01 -3.3399E-01 -6.6268E-02
     168     1.22315 -1.2450E-01 -3.3235E-01 -4.4598E-02
     169     0.78106 -1.3936E-01 -3.2778E-01 -5.2637E-02
     170     1.28111 -1.4306E-01 -3.2867E-01 -5.1435E-02
     171     0.15376  6.3653E-02  7.9177E-02  5.2894E-02
     172     0.21786  5.4351E-02  8.7044E-02  5.4867E-02
     173     0.50796  7.3829E-02  1.0019E-01  5.4932E-02
     174     0.44433  6.4747E-02  9.9628E-02  6.4681E-02
     175     1.58691 -4.9582E-02  1.4113E-01 -1.0250E-01
     176     1.27333 -4.7645E-02  1.3337E-01 -9.1227E-02
     177     1.24221 -4.1084E-02  1.3256E-01 -9.4786E-02
     178     1.09839 -4.5994E-02  1.2578E-01 -9.4801E-02
     179     0.34610 -4.2694E-02  7.7030E-03 -1.3454E-01
     180  0.0000E+00 -3.6722E-02  4.1045E-03 -1.2589E-01
     181     0.17348 -2.8121E-02  1.0254E-02 -1.3154E-01
     182     0.25923 -4.3373E-02  3.7714E-03 -1.3345E-01
     183     1.02323 -3.1964E-01 -2.3008E-01 -5.9424E-02
     184     2.00000 -3.2709E-01 -2.4610E-01 -1.6193E-02
     185     2.00000 -3.4986E-01 -2.2958E-01 -7.4227E-02
     186     1.05826 -3.1765E-01 -2.2176E-01 -4.1356E-02
     187    -0.11666 -1.6485E-01 -6.1852E-02 -1.5088E-01
     188    -0.13540 -1.6365E-01 -6.9664E-02 -1.4216E-01
     189    -0.37055 -1.5209E-01 -1.0011E-01 -1.4836E-01
     190    -0.41720 -1.7550E-01 -6.6433E-02 -1.5291E-01
     191    -0.42832 -3.0932E-01 -1.3393E-01  4.5574E-03
     192    -0.37227 -3.2501E-01 -1.3420E-01 -1.4113E-01
     193    -1.00000 -2.9858E-01 -1.3019E-01  2.2646E-02
     194    -0.35908 -2.9191E-01 -1.2517E-01  1.4725E-02
     195    -0.12360 -1.6002E-01 -7.1655E-02  3.8754E-02
     196 -3.5710E-02 -1.7386E-01 -6.9065E-02 -1.4621E-02
     197    -0.16668 -1.4131E-01 -6.2182E-02  1.0738E-01
     198    -0.31518 -3.1726E-01 -1.4678E-01 -6.6741E-02
     199    -0.60772 -3.4378E-01 -1.4693E-01 -1.8632E-01
     200    -1.00000 -2.9421E-01 -1.4391E-01  8.6957E-02
     201     0.75854 -2.1567E-01 -8.7283E-02 -2.0251E-01
     202     0.23812 -9.6754E-02 -1.6249E-03 -6.9044E-02
     203     0.13500 -8.3131E-02  7.9251E-03 -4.8373E-02
     204     0.21446 -1.0482E-01 -2.6668E-02 -7.7965E-02
     205     0.30944 -1.1957E-01  7.0049E-03 -6.9603E-02
     206     0.58474 -2.0937E-01 -1.0014E-01 -1.9873E-01
     207     0.75474  1.1549E-02  9.6997E-02 -1.5883E-01
     208     0.72179  5.8472E-04  9.5813E-02 -1.5577E-01
     209     0.44286  6.3951E-03  8.6982E-02 -1.4073E-01
     210     0.70079  6.9204E-03  8.6967E-02 -1.5903E-01
     211 -4.2380E-02 -1.8219E-01 -8.9682E-02 -1.9585E-01
     212    -0.48389 -1.7580E-01 -9.3851E-02 -1.9368E-01
     213  6.9659E-02 -1.8836E-01 -1.0232E-01 -1.9364E-01
     214     1.34311 -1.1273E-01 -4.0835E-01 -1.9004E-01
     215     0.69204 -1.1379E-01 -3.2911E-01 -2.0608E-01
     216     1.13691 -7.0946E-02 -3.8842E-01 -2.0335E-01
     217     0.78680 -8.2594E-02 -3.2571E-01 -1.5848E-01
     218     1.09848 -1.1300E-01 -2.8864E-01 -1.2513E-01
     219     2.00000 -1.3567E-01 -2.8752E-01 -1.4920E-01
     220     1.24945 -1.1362E-01 -2.7824E-01 -1.3267E-01
     221     1.64387 -1.3934E-01 -2.5390E-01 -1.3399E-01
     222     0.22852  1.9396E-02 -2.4688E-02  1.0607E-01
     223     0.49719  2.7248E-02 -2.4840E-02  1.2561E-01
     224     0.45398  2.4307E-02 -3.7238E-02  1.2196E-01
     225     0.33955  1.9028E-02 -1.8959E-02  1.2495E-01
     226     0.77156 -7.8578E-02 -2.1762E-03 -1.5718E-01
     227     1.04694 -1.0007E-01 -4.4919E-03 -1.7484E-01
     228     1.18466 -7.4311E-02  1.0227E-02 -1.7926E-01
     229     0.78423 -8.0755E-02 -3.9924E-03 -1.5351E-01
     230     2.00000  2.4508E-02 -3.4251E-01  5.1879E-02
     231     2.00000  2.6593E-02 -3.2801E-01  2.4158E-02
     232     1.31896 -1.0953E-02 -3.2250E-01  2.8706E-02
     233    -0.15173 -1.5203E-01 -5.0222E-02  8.7667E-02
     234     1.02558 -8.1730E-02 -1.4631E-02 -2.2407E-01
     235     0.71567 -9.9216E-02 -2.8359E-02 -1.9745E-01
     236     0.74313 -8.5611E-02 -1.6853E-02 -1.9723E-01
     237     2.00000  8.4250E-04  1.7115E-02  4.5190E-03
     238     2.00000  5.6761E-03  4.5572E-02  1.3154E-02
     239     1.96088  3.0217E-03  2.7855E-02  2.1226E-02
     240     1.93587  4.9427E-03  5.4232E-02  3.6774E-02
     241     0.51452 -1.7867E-02  1.1433E-01 -7.5145E-02
     242     0.22220 -2.4442E-02  1.0338E-01 -6.9756E-02
     243     0.21787 -1.5841E-02  1.0191E-01 -6.9824E-02
     244     0.43364 -2.2167E-02  1.0932E-01 -7.6744E-02
     245     1.65423 -2.3522E-02  1.6176E-01 -7.5949E-02
     246     1.22762 -2.2672E-02  1.4479E-01 -6.7602E-02
     247     0.79698 -6.3641E-02  1.4344E-01 -2.9292E-02
     248     0.56836 -8.1237E-02  1.4287E-01 -3.4548E-03
     249     0.48846 -7.0183E-02  1.2569E-01 -1.6021E-02
     250     0.61570 -8.4319E-02  1.4516E-01 -1.2955E-02
     251     1.57712 -3.2913E-02  1.5610E-01 -7.3583E-02
     252     0.16500 -3.0441E-02  9.8564E-02 -4.4155E-02
     253     0.22881 -3.5819E-02  1.0258E-01 -4.6700E-02
     254     0.30507 -2.6791E-02  1.0431E-01 -5.1087E-02
     255     0.46069 -3.3097E-02  1.1245E-01 -5.0861E-02
     256     0.42535 -2.5846E-02  1.0993E-01 -4.1726E-02
     257     1.70279 -1.9063E-02 -5.6640E-02 -5.1997E-02
     258     1.58945  9.5466E-03 -7.9425E-02 -7.3247E-02
     259     1.71082  5.1928E-04 -4.1947E-02 -4.4592E-02
     260     1.60887 -1.6933E-02 -7.3395E-02 -7.6723E-02
     261     0.68192 -2.0584E-01 -7.8865E-02 -1.6957E-01
     262     0.78097 -2.2471E-01 -8.6984E-02 -1.9521E-01
     263     0.54455 -2.5485E-01 -1.0700E-01 -1.9900E-01
     264     1.03776 -2.1787E-01 -8.9940E-02 -2.1198E-01
     265     0.18938 -2.2055E-01 -1.4805E-01 -1.1875E-01
     266    -0.40563 -2.0304E-01 -1.5360E-01 -1.1162E-01
     267    -0.23781 -2.1403E-01 -1.5023E-01 -1.0029E-01
     268     1.54268 -1.4152E-01  3.2874E-01 -1.2121E-02
     269     1.32464 -1.4266E-01  3.1165E-01  4.9826E-04
     270     2.00000 -9.3367E-02  3.0683E-01 -5.8975E-02
     271     1.17639 -9.4156E-02  2.3541E-01 -1.7800E-02
     272     1.11695  2.6482E-02 -8.6345E-02  1.5504E-01
     273     0.76158  1.5864E-02 -8.7138E-02  1.2494E-01
     274     1.09042  1.2352E-02 -9.9034E-02  1.4345E-01
     275     0.82659  2.8669E-02 -7.7241E-02  1.3536E-01
     276     0.69849 -2.0813E-02  1.2363E-01 -5.1760E-02
     277     0.50800 -1.9970E-02  1.1325E-01 -5.5615E-02
     278     0.66040 -2.6331E-02  1.2041E-01 -5.5100E-02
     279     0.39802 -7.7883E-02 -1.8097E-01  5.7426E-02
     280 -7.9061E-03 -9.0117E-02 -1.7695E-01  5.9877E-02
     281     0.28560 -9.1657E-02 -1.7520E-01  5.4635E-02
     282     0.42384 -8.9540E-02 -1.7111E-01  6.5537E-02
     283    -0.12325 -8.2730E-02 -1.0840E-01 -8.5253E-02
     284  1.3746E-02 -4.4387E-02 -6.2442E-02 -3.7892E-02
     285 -7.8094E-02 -2.9140E-02 -1.0934E-01 -5.9900E-02
     286    -0.18719 -3.1837E-02 -1.6660E-01 -7.6576E-02
     287     0.39857 -1.4311E-02  1.0857E-01 -3.0085E-02
     288     0.40241 -2.7213E-02  1.1043E-01 -2.4076E-02
     289     0.16995 -2.1054E-02  9.4052E-02 -2.8460E-02
     290     0.44409 -2.2184E-02  1.1137E-01 -3.4895E-02
     291     0.64267 -4.0902E-03 -3.1359E-01  3.9910E-02
     292     0.82434 -3.4520E-03 -3.3056E-01  2.9992E-02
     293     0.98156 -1.4185E-02 -3.3338E-01  3.1197E-02
     294     0.97390 -7.1419E-04 -3.3195E-01  6.1970E-02
     295     0.91252 -4.8611E-02  1.2907E-01 -6.8822E-02
     296     1.16257 -5.9506E-02  1.4194E-01 -7.1625E-02
     297     0.95504 -5.2258E-02  1.3626E-01 -6.1952E-02
     298     0.77542 -5.5404E-02  1.2566E-01 -6.4055E-02
     299     1.53428 -1.1388E-01 -1.3571E-01  4.6615E-02
     300     1.57842 -1.3849E-01 -1.3070E-01  5.6776E-02
     301     1.70020 -1.2342E-01 -1.2638E-01  5.3449E-02
     302     1.31183 -1.2494E-01 -1.4394E-01  5.8335E-02
     303     0.22097 -2.0600E-01 -1.5950E-01 -1.1640E-01
     304    -0.27753 -2.0557E-01 -1.4692E-01 -1.4013E-01
     305     0.34038 -2.0916E-01 -1.5310E-01 -1.3565E-01
     306     1.17088 -6.0416E-02  8.2746E-02 -1.5854E-01
     307     1.54078 -6.4909E-02  1.0338E-01 -1.7357E-01
     308     1.13818 -4.8273E-02  8.8704E-02 -1.5910E-01
     309     0.88313 -4.3709E-02  8.6925E-02 -1.4194E-01
     310     0.28812 -2.8625E-01 -1.4227E-01 -1.6871E-01
     311    -0.36165 -2.6603E-01 -1.5532E-01 -1.4096E-01
     312    -0.23025 -2.6399E-01 -1.3963E-01 -1.6831E-01
     313     0.35041 -2.9997E-01 -1.5751E-01 -1.7257E-01
     314     0.70924 -1.1277E-01 -2.8245E-01 -4.4862E-02
     315     0.40516 -8.5577E-02 -2.9395E-01 -9.0104E-02
     316     0.52047 -8.6798E-02 -2.8145E-01 -8.5017E-02
     317     0.76671 -1.0414E-01 -3.1241E-01 -1.0714E-01
     318     1.35733 -5.0849E-02  1.1339E-01 -1.5953E-01
     319     0.82368 -7.0017E-02 -1.8050E-01  5.2738E-02
     320     0.66305 -7.6652E-02 -1.8550E-01  4.4146E-02
     321     0.63526 -8.3792E-02 -1.7670E-01  5.2574E-02
     322     0.37168 -1.3046E-02  1.0702E-01 -7.8445E-02
     323     1.15119 -1.6364E-02  1.3300E-01 -1.1033E-01
     324     1.57230 -2.5595E-02  1.4685E-01 -1.1752E-01
     325     1.47708 -2.2528E-02  1.4867E-01 -1.1242E-01
     326     1.20158 -2.2165E-02  1.3526E-01 -1.0188E-01
     327     0.48064 -4.3711E-02 -1.6289E-01  1.1582E-01
     328     0.13885 -4.0932E-02 -1.6401E-01  1.1535E-01
     329 -4.8743E-02 -2.6477E-02 -1.6118E-01  1.1510E-01
     330     0.28586 -3.4537E-02 -1.6313E-01  1.0607E-01
     331     0.97842 -5.9972E-02  1.2567E-01 -8.2066E-02
     332     1.54755 -6.4391E-02  1.3930E-01 -9.2158E-02
     333     1.35779 -5.7975E-02  1.3315E-01 -8.9176E-02
     334     0.95225 -1.0072E-01 -2.2586E-01  1.1011E-02
     335     0.68552 -1.2936E-01 -2.3194E-01  9.8058E-03
     336     0.41865 -1.3339E-01 -2.2824E-01  9.1035E-03
     337     0.89541 -1.2239E-01 -2.4974E-01  4.7775E-03
     338     0.54762 -7.2809E-02  1.2951E-01 -2.5322E-02
     339     0.47332 -5.9367E-02  1.1944E-01 -2.9469E-02
     340     0.87854 -6.5667E-02  1.4589E-01 -4.0510E-02
     341     0.70215 -6.0315E-02  1.3120E-01 -4.2119E-02
     342    -0.59461 -1.7605E-01 -8.6173E-02 -2.0131E-01
     343    -0.17986 -1.7528E-01 -8.4306E-02 -1.9046E-01
     344     0.12334 -1.7148E-01 -8.0252E-02 -1.9765E-01
     345    -0.43033 -1.7236E-01 -8.8329E-02 -1.9649E-01
     346     0.29696 -1.9209E-01 -3.2142E-01 -1.3387E-02
     347     0.90371 -2.0167E-01 -3.6247E-01  9.2674E-04
     348     1.07030 -2.2517E-01 -3.4715E-01 -1.0022E-02
     349     0.97382 -1.9950E-01 -3.5642E-01  9.0780E-03
     350     0.72575  3.2394E-02  1.2748E-01 -1.1094E-01
     351     0.60719  1.8810E-02  1.2011E-01 -1.0388E-01
     352     0.74118  2.5665E-02  1.2619E-01 -1.1565E-01
     353     0.86840  1.5476E-02  1.3110E-01 -1.1212E-01
     354     0.49511 -2.6260E-02  1.1450E-01 -6.7206E-02
     355     0.37538 -3.1152E-02  1.0996E-01 -7.0969E-02
     356     0.21682 -2.7184E-02  1.0445E-01 -6.6697E-02
     357    -0.61665 -1.6063E-01 -2.4648E-01  4.8404E-02
     358    -1.00000 -2.1837E-01 -2.6707E-01  6.5449E-02
     359    -0.62108 -1.6920E-01 -2.8535E-01  4.5721E-02
     360    -0.56638 -1.7633E-01 -2.7404E-01  4.3198E-02
     361     0.44996 -2.0184E-01 -7.5311E-02 -1.9405E-01
     362     1.03004 -2.2338E-01 -6.0551E-02 -2.2601E-01
     363     0.65044 -2.0003E-01 -6.8097E-02 -2.1372E-01
     364     0.66238 -1.9453E-01 -4.6465E-02 -2.0116E-01
     365     0.48859 -1.9570E-02  1.1181E-01 -4.7000E-02
     366     0.29200 -1.4391E-02  1.0243E-01 -4.7200E-02
     367     0.27070 -1.5093E-02  9.9383E-02 -4.0210E-02
     368     0.58193 -1.1483E-02  1.1656E-01 -4.4369E-02
     369     1.31586 -3.4801E-02  1.4193E-01 -8.0884E-02
     370     1.28934 -3.9149E-02  1.4187E-01 -7.6589E-02
     371     1.22229 -3.1685E-02  1.4197E-01 -7.3234E-02
     372     1.02161 -3.2616E-02  1.3221E-01 -7.4091E-02
     373     0.63730 -5.6346E-02 -1.6589E-01  1.2508E-01
     374     0.48271 -3.9311E-02 -1.6416E-01  1.3186E-01
     375     0.23186 -1.1710E-01 -4.0597E-02 -1.1601E-01
     376    -0.13198 -1.1810E-01 -9.6498E-02 -1.1977E-01
     377 -1.9635E-02 -1.2982E-01 -6.9928E-02 -1.3003E-01
     378    -0.17265 -1.5110E-01 -7.1858E-02 -1.4574E-01
     379     1.31282 -6.0195E-02  1.5230E-01 -6.7360E-02
     380     1.62877 -5.6760E-02  1.5765E-01 -7.7445E-02
     381     0.58070 -5.5841E-02  1.0489E-01 -8.2859E-02
     382     0.25877 -5.6652E-02  9.3822E-02 -7.3337E-02
     383     0.22612 -4.8817E-02  9.4464E-02 -7.4082E-02
     384     0.57722 -5.9831E-02  9.8731E-02 -8.3077E-02
     385     0.48018 -4.7018E-02  1.1623E-01 -3.3460E-02
     386     0.27530 -4.3014E-02  1.0466E-01 -3.9330E-02
     387     0.39497 -3.6787E-02  1.1093E-01 -4.2115E-02
     388     0.62911 -4.4577E-02  1.2342E-01 -4.5548E-02
     389     1.20169  6.4464E-02  1.5047E-01 -2.7028E-02
     390     1.28744  4.7609E-02  1.5235E-01 -3.2712E-02
     391     1.27803  5.7742E-02  1.5376E-01 -2.6141E-02
     392     0.92838  5.0409E-02  1.3708E-01 -2.6119E-02
     393     0.21958 -1.4659E-01 -6.2156E-02 -9.5508E-02
     394     0.12799 -1.7414E-01 -7.6200E-02 -1.1123E-01
     395    -0.12388 -2.0340E-01 -1.1095E-01 -8.6429E-02
     396     0.21421 -1.9162E-01 -8.1754E-02 -1.4698E-01
     397 -4.0920E-02 -2.1417E-01 -1.5577E-01 -1.4938E-01
     398     0.30357 -2.3064E-01 -1.5113E-01 -1.5401E-01
     399    -0.35304 -2.0462E-01 -1.6147E-01 -1.3332E-01
     400     0.32823 -2.3097E-01 -1.8250E-01 -1.4612E-01
     401     1.34011  5.0330E-03  1.5313E-01 -4.5412E-02
     402     1.24194 -1.9476E-03  1.4766E-01 -4.9485E-02
     403     0.96550  6.1103E-04  1.3626E-01 -4.1227E-02
     404     1.69294  5.7880E-02  1.6134E-01 -1.6052E-01
     405     1.53222  3.1839E-02  1.5509E-01 -1.5941E-01
     406     1.51458  5.3485E-02  1.5404E-01 -1.5150E-01
     407     1.24535  4.7719E-02  1.4259E-01 -1.4967E-01
     408     0.65499 -1.2200E-02  3.0131E-02 -1.6175E-01
     409     0.35990 -2.0269E-02  1.9535E-02 -1.4245E-01
     410     0.35593 -7.8519E-03  2.3381E-02 -1.4942E-01
     411     0.77914 -2.8970E-02  2.4306E-02 -1.6613E-01
     412     0.47646 -3.4069E-02  1.1427E-01 -6.7598E-02
     413     0.54580  4.0475E-02  1.2386E-01 -8.7303E-02
     414     0.61351  2.9355E-02  1.2573E-01 -8.7717E-02
     415     0.36584  3.3653E-02  1.1285E-01 -7.4549E-02
     416     0.27244  2.9532E-02  1.0772E-01 -7.9690E-02
     417     0.19583  2.7854E-02  1.0202E-01 -1.2961E-01
     418     0.36349  3.3533E-02  1.0793E-01 -1.3213E-01
     419     0.43435  2.2512E-02  1.0727E-01 -1.3116E-01
     420     0.65908  2.5726E-02  1.1282E-01 -1.4514E-01
     421     1.43367  4.2339E-02 -1.3024E-01  2.0072E-01
     422     1.31125  8.5411E-03 -1.4255E-01  1.9010E-01
     423     2.00000  3.0408E-02 -1.3917E-01  2.1724E-01
     424     2.00000  5.4808E-03 -1.5702E-01  2.2398E-01
     425     0.72806  7.3534E-02  1.3332E-01 -7.0300E-02
     426     0.29080  7.1589E-02  1.1115E-01 -6.6907E-02
     427     0.41112  6.8738E-02  1.1675E-01 -7.6580E-02
     428     0.35982  6.2703E-02  1.1532E-01 -6.4501E-02
     429     1.27738 -8.1567E-02 -2.0727E-01  1.7515E-02
     430     1.08239 -9.3256E-02 -1.9540E-01  2.1229E-02
     431     1.54046 -6.7200E-02 -2.0776E-01  2.2322E-02
     432     1.51264 -6.8403E-02 -1.7932E-01  1.9173E-02
     433     1.22480 -7.3160E-02 -2.4344E-01  2.2791E-01
     434     0.37199 -6.6569E-02 -2.2743E-01  1.9789E-01
     435     0.64844 -7.2555E-02 -2.2956E-01  2.0425E-01
     436     0.45639 -6.9755E-02 -2.3955E-01  2.0796E-01
     437     0.38933 -1.9244E-01 -1.9260E-01  6.7859E-02
     438    -0.32025 -1.7192E-01 -1.8817E-01  5.4133E-02
     439     0.10155 -1.8243E-01 -1.8424E-01  5.1125E-02
     440  6.8364E-02 -1.9226E-01 -1.8949E-01  4.7609E-02
     441     1.07228  2.1965E-02 -1.8998E-01  8.1944E-02
     442     0.49813 -3.3754E-03 -1.8523E-01  8.5088E-02
     443     0.80277  1.1289E-02 -2.0526E-01  7.8279E-02
     444     0.93728 -2.6418E-03 -1.7588E-01  8.7387E-02
     445    -0.43010 -6.8007E-03 -2.5326E-01  8.4459E-02
     446    -0.54936  3.0633E-03 -2.4281E-01  8.8331E-02
     447    -0.76405 -4.5203E-02 -2.4957E-01  9.3615E-02
     448    -0.63025 -2.7720E-02 -2.2922E-01  9.0762E-02
     449     1.36318 -3.7737E-02  1.4559E-01 -7.1808E-02
     450     1.63654 -3.7932E-02  1.5398E-01 -8.2197E-02
     451     0.21900 -3.5436E-02  1.0659E-01 -6.7236E-02
     452     0.25827 -3.7022E-02  1.0728E-01 -6.2675E-02
     453    -0.22414 -1.5716E-01 -2.0079E-01  1.4263E-01
     454    -0.38844 -2.5163E-01 -1.6024E-01  1.2567E-01
     455    -0.42260 -2.5574E-01 -1.8133E-01  1.3024E-01
     456  7.6608E-03 -1.2400E-01 -1.5477E-01  1.1128E-01
     457 -6.3902E-02 -2.6291E-01 -1.0476E-01 -1.6786E-01
     458    -0.18315 -2.7323E-01 -1.1474E-01 -1.5964E-01
     459     0.16535 -2.2354E-01 -8.4464E-02 -1.4394E-01
     460 -7.0808E-02 -2.4232E-01 -9.7624E-02 -8.9887E-02
     461     0.56761 -2.3587E-01 -8.3802E-02 -2.1214E-01
     462     0.70488 -2.0436E-01 -6.3031E-02 -1.9500E-01
     463     0.13385 -2.2832E-01 -9.1919E-02 -2.0366E-01
     464     0.86213 -2.2642E-01 -7.0452E-02 -2.1879E-01
     465     1.60967 -1.3872E-01  5.3275E-02 -1.9719E-01
     466     2.00000 -1.5461E-01  5.9100E-02 -2.0820E-01
     467     2.00000 -1.4400E-01  5.4589E-02 -2.1591E-01
     468     2.00000 -1.2985E-01  6.9856E-02 -1.9113E-01
     469     0.40134  7.3791E-02  1.1796E-01 -5.9547E-02
     470     0.33151  6.2480E-02  1.1148E-01 -5.3509E-02
     471     0.16883  6.5409E-02  1.0609E-01 -5.7627E-02
     472     0.45630 -4.5895E-03  1.1303E-01 -6.6739E-02
     473     0.23437 -1.3703E-03  1.0224E-01 -6.6066E-02
     474     0.47107  4.7384E-03  1.1326E-01 -6.4977E-02
     475     0.51569  2.4233E-03  1.1564E-01 -7.4027E-02
     476     1.24290 -9.2780E-02 -6.6393E-03 -2.3032E-01
     477     2.00000 -1.1685E-01 -9.1219E-03 -2.5381E-01
     478     0.95958 -8.5735E-02 -1.6922E-01  1.2634E-01
     479     0.39310 -6.0625E-02 -1.6659E-01  1.1586E-01
     480     0.53128 -7.5098E-02 -1.7075E-01  1.2139E-01
     481     0.79918 -6.9939E-02 -1.6971E-01  1.2989E-01
     482     1.00790 -2.2364E-02  3.2620E-02 -1.7867E-01
     483     1.04847 -6.8589E-03  4.0500E-02 -1.8191E-01
     484     0.66885 -1.8313E-02  2.9873E-02 -1.6066E-01
     485     0.64127 -9.9971E-02 -1.4926E-02 -1.4322E-01
     486     1.00508 -1.1932E-01 -2.2807E-02 -1.7911E-01
     487     0.48195 -1.2833E-01 -4.5221E-02 -1.4702E-01
     488     0.70304 -1.0089E-01 -1.6854E-02 -1.4865E-01
     489    -0.81383  2.1210E-02 -1.7634E-01  1.4672E-01
     490    -1.00000  1.8315E-02 -1.7688E-01  1.5856E-01
     491    -1.00000  1.7285E-02 -1.6197E-01  1.4391E-01
     492    -0.75512  2.5174E-02 -1.7183E-01  1.4490E-01
     493     0.14167 -2.2568E-02 -1.6548E-01  1.3931E-01
     494     0.27111 -1.6883E-02 -1.5855E-01  1.3056E-01
     495     0.66780 -2.6868E-02 -1.5760E-01  1.3908E-01
     496     0.31370 -2.5910E-02 -1.6241E-01  1.3269E-01
     497    -0.12465 -1.4526E-02 -1.6562E-01  1.3447E-01
     498    -0.27472 -1.6845E-02 -1.7834E-01  1.4393E-01
     499 -6.6190E-02 -2.8185E-02 -1.6957E-01  1.3598E-01
     500 -7.6566E-02 -3.5928E-02 -1.8321E-01  1.5418E-01
     501    -0.39613 -2.8154E-02 -1.7721E-01  1.4053E-01
     502  2.1995E-02 -3.5738E-02 -1.7303E-01  1.4029E-01
     503     0.24508 -4.7961E-02 -1.7855E-01  1.4925E-01
     504     1.25020 -6.6399E-02 -1.7210E-01  1.6141E-01
     505     1.51435 -6.8535E-02 -1.6250E-01  1.5200E-01
     506     2.00000 -8.4342E-02 -1.6978E-01  1.6808E-01
     507     1.53826 -8.7145E-02 -1.6665E-01  1.4856E-01
     508     0.66125 -7.7492E-02 -1.6590E-01  1.0860E-01
     509     0.24661 -7.4562E-02 -1.6694E-01  1.0317E-01
     510     0.65574 -7.3465E-02 -1.7478E-01  1.3683E-01
     511     0.87681 -6.7766E-02 -1.7910E-01  1.5887E-01
     512     0.41127 -5.7279E-02 -1.7185E-01  1.3490E-01
     513     0.49108 -6.1650E-02 -1.8327E-01  1.5584E-01
     514     1.17396 -8.5215E-02 -1.7183E-01  1.4183E-01
     515     1.02058 -7.6695E-02 -1.6503E-01  1.1404E-01
     516     1.34639 -7.4634E-02 -1.6292E-01  1.2941E-01
     517     0.69537  9.6575E-03  1.2639E-01 -7.0108E-02
     518     0.83198 -2.9442E-03  1.3115E-01 -6.9398E-02
     519     0.68460  8.2406E-04  1.2273E-01 -6.3765E-02
     520     0.53164 -1.0179E-01 -1.6752E-01  5.2921E-02
     521     0.11026 -1.0891E-01 -1.6810E-01  5.8467E-02
     522     0.72112 -1.1166E-01 -1.6104E-01  6.2799E-02
     523     0.14931 -9.9572E-02 -1.7073E-01  6.2484E-02
     524     1.47941 -6.1628E-02 -1.5798E-01  1.1144E-01
     525     1.63319 -4.7574E-02 -1.5204E-01  1.1242E-01
     526     1.43426 -5.7464E-02 -1.5573E-01  1.2606E-01
     527     2.00000 -6.2422E-02 -1.5365E-01  1.1625E-01
     528  2.6152E-02 -1.8810E-01 -1.7624E-01  4.6924E-03
     529    -0.36346 -2.6747E-01 -2.7036E-01 -3.5730E-03
     530     0.32698 -1.6059E-01 -2.6468E-01  1.0559E-02
     531  8.8931E-02 -2.1120E-01 -2.7481E-01 -1.3953E-02
     532     0.11490  3.5561E-03 -6.0575E-02  6.5791E-02
     533  0.0000E+00  2.6717E-02 -4.8090E-02  6.8564E-02
     534  0.0000E+00 -9.4642E-03 -3.1644E-02  2.0742E-02
     535  0.0000E+00 -1.6903E-03 -3.0672E-02  3.1186E-02
     536     1.69717 -6.2986E-02  8.0264E-02  4.9916E-02
     537     1.59733 -1.0263E-02  6.5153E-02  5.8598E-02
     538     1.35905  4.6436E-03  1.1529E-01  1.7408E-01
     539     1.48746 -4.0004E-02  1.3781E-01  1.7452E-01
     540     1.14274  1.6548E-01 -8.2914E-02  8.0659E-02
     541     0.63680  1.5008E-01 -6.8947E-02  6.6908E-02
     542     1.03924  1.6851E-01 -7.2012E-02  6.8272E-02
     543     0.97082  1.6185E-01 -7.2398E-02  7.4584E-02
     544     0.88840  9.8393E-02  1.3554E-01 -1.6477E-02
     545     1.04104  1.1141E-01  1.4089E-01 -1.3854E-02
     546     0.98238  1.0177E-01  1.4224E-01 -2.3731E-02
     547     0.67272  1.0452E-01  1.2467E-01 -1.6635E-02
     548    -0.71833  3.0639E-02 -1.9254E-01  1.4986E-01
     549    -0.48194  3.4049E-02 -1.8610E-01  1.3921E-01
     550    -0.75562  1.8544E-02 -1.9314E-01  1.6523E-01
     551     0.62864 -2.1816E-01 -1.9399E-01 -1.6786E-01
     552     0.21848 -2.0930E-01 -1.6128E-01 -1.7161E-01
     553     0.90379 -2.3071E-01 -1.8434E-01 -1.9842E-01
     554     0.74366 -2.1157E-01 -1.8272E-01 -1.7997E-01
     555     0.12649 -1.1415E-01 -2.8233E-01  1.2471E-01
     556 -1.3490E-02 -1.3610E-01 -2.4692E-01  1.0498E-01
     557    -0.50001 -1.3353E-01 -2.7014E-01  1.1771E-01
     558    -0.52308 -1.3396E-01 -2.7879E-01  1.1041E-01
     559     0.34103  2.8581E-02 -1.7045E-01  1.1401E-01
     560     0.24052  1.8925E-02 -1.5653E-01  1.1904E-01
     561     0.11117  2.9839E-02 -1.6498E-01  1.2127E-01
     562    -0.14311  1.5356E-02 -1.6171E-01  1.1359E-01
     563     0.20282 -1.0336E-01 -5.0418E-02 -1.3348E-01
     564  7.9323E-02 -9.8766E-02 -4.7264E-02 -5.3510E-02
     565     0.10241 -8.7377E-02 -4.5535E-02 -8.4220E-02
     566     0.31240 -1.3122E-01 -6.8457E-02 -1.1355E-01
     567     1.14037  6.1113E-02 -1.9899E-01  1.0024E-01
     568     0.94872  6.0797E-02 -1.7897E-01  1.1663E-01
     569     1.54883  9.9729E-02 -1.8386E-01  1.0716E-01
     570     1.41625  1.0061E-01 -2.2032E-01  1.2441E-01
     571     1.11526  1.0544E-01 -2.3137E-01  1.7270E-01
     572     0.72509  8.8293E-02 -1.8573E-01  1.5269E-01
     573     1.02515  1.1072E-01 -1.8447E-01  1.7675E-01
     574     0.47665  8.0844E-02 -1.9536E-01  1.5415E-01
     575     0.10428 -2.4607E-01 -1.1565E-01 -9.6980E-02
     576     0.24826 -2.3668E-01 -9.4237E-02 -9.6110E-02
     577    -0.23618 -2.1147E-01 -1.0999E-01 -8.5817E-02
     578 -4.2670E-02 -2.3086E-01 -1.1149E-01 -8.4805E-02
     579     0.85551  3.2430E-02 -1.4552E-01  1.5191E-01
     580     0.98283  8.2605E-02 -1.2675E-01  1.4155E-01
     581     0.49303  4.3735E-02 -1.0852E-01  1.1677E-01
     582     0.59086  5.3251E-02 -1.1220E-01  1.1994E-01
     583     0.73018 -2.5116E-01 -2.5325E-01 -3.7807E-02
     584     1.19439 -2.1833E-01 -2.8722E-01 -2.4731E-02
     585     1.33805 -2.3696E-01 -2.9728E-01 -4.7211E-02
     586     0.64519 -2.2517E-01 -2.7601E-01 -3.2972E-02
     587     0.67421  3.6705E-02 -2.1379E-01  9.8027E-02
     588     0.82464  5.5695E-02 -2.1583E-01  1.1116E-01
     589     1.29603  7.2231E-02 -2.5684E-01  9.9124E-02
     590 -8.1681E-02 -1.7811E-01 -2.3879E-01  7.4707E-02
     591     0.34134 -1.9722E-01 -2.4474E-01  8.5963E-02
     592     0.43984 -2.1368E-01 -2.4275E-01  6.7643E-02
     593    -0.17571 -1.9500E-01 -2.2116E-01  5.2958E-02
     594     1.51384  9.2770E-02  6.5836E-02 -2.1244E-01
     595     2.00000  9.5804E-02  7.3509E-02 -2.1984E-01
     596     2.00000  7.3982E-02  6.8914E-02 -2.2244E-01
     597     1.48875  8.1546E-02  6.9958E-02 -2.1439E-01
     598    -0.47861 -1.7204E-02 -1.7419E-01  1.4107E-01
     599  6.1658E-02  5.2990E-02 -1.4648E-01  1.3974E-01
     600     0.26507  5.9749E-02 -1.5767E-01  1.5719E-01
     601    -0.10900  5.7636E-02 -1.6160E-01  1.3319E-01
     602  2.2396E-02  5.0325E-02 -1.4933E-01  1.4065E-01
     603     0.25146 -3.4006E-02 -1.7192E-01  1.5312E-01
     604    -0.16744 -3.2125E-02 -1.8886E-01  1.5907E-01
     605     0.37494 -3.8969E-02 -1.7825E-01  1.6250E-01
     606     0.16932 -4.4792E-02 -1.7906E-01  1.5805E-01
     607     0.76735 -9.2924E-02 -1.8517E-01  1.4898E-01
     608     1.27894 -1.2351E-01 -1.9073E-01  1.5786E-01
     609     0.85772 -9.6498E-02 -1.9789E-01  1.6760E-01
     610     0.65006 -1.0169E-01 -1.8940E-01  1.4660E-01
     611     0.81393  9.1950E-02 -8.2919E-02  1.5507E-01
     612     0.45163  8.9878E-02 -7.0338E-02  1.3442E-01
     613     0.45780  9.3272E-02 -6.6116E-02  1.3440E-01
     614     0.67873  6.9849E-02 -8.7460E-02  1.4623E-01
     615     0.64983  8.0295E-02 -4.1232E-02  1.3385E-01
     616     0.54021  6.0819E-02 -5.0957E-02  1.2487E-01
     617     0.33039  7.3996E-02 -3.7766E-02  1.1408E-01
     618     0.56782  6.5261E-02 -4.1422E-02  1.2624E-01
     619     1.47670  1.1056E-01  8.1920E-02  1.7586E-01
     620     1.52881  1.1269E-01  5.9701E-02  1.8704E-01
     621     2.00000  1.2843E-01  7.7888E-02  1.8753E-01
     622     1.68793  1.2601E-01  7.8241E-02  1.7470E-01
     623     1.15404  4.4434E-02 -1.0988E-01  1.7056E-01
     624     1.48573  7.6289E-02 -1.0719E-01  1.9627E-01
     625     1.50060  4.3273E-02 -1.2590E-01  1.9331E-01
     626     1.48659  7.6844E-02 -1.0714E-01  1.9021E-01
     627     0.35939 -2.8160E-02 -1.3438E-01  1.2014E-01
     628     0.16108 -2.9858E-02 -1.0638E-01  8.4788E-02
     629     0.40532 -1.5115E-02 -1.2055E-01  1.1686E-01
     630  8.8408E-02 -4.4565E-02 -1.3012E-01  8.9915E-02
     631     0.12932  5.4873E-02 -1.5835E-01  1.3051E-01
     632    -0.10102  4.4686E-02 -1.6321E-01  1.1314E-01
     633  7.8507E-02  5.0632E-02 -1.6016E-01  1.2520E-01
     634     0.33494  5.8432E-02 -1.4393E-01  1.3202E-01
     635  8.4219E-02  1.6768E-02 -2.9974E-01  2.8024E-02
     636 -6.8894E-02  2.7895E-02 -2.8902E-01  3.9888E-02
     637     0.11639  2.2594E-02 -2.7377E-01  3.4664E-02
     638    -0.35171  4.5062E-02 -2.6102E-01 -3.8778E-03
     639     1.21545  9.2746E-02  1.5242E-01 -1.8321E-02
     640     1.55893  9.5905E-02  1.6979E-01 -1.3970E-02
     641     1.16862  8.9005E-02  1.4757E-01 -1.0696E-02
     642     1.25390  8.2234E-02  1.5403E-01 -2.1027E-02
     643     1.16147  8.0122E-03  1.3344E-01 -1.4547E-01
     644     1.21992  1.0326E-02  1.3856E-01 -1.3954E-01
     645     1.13691  2.2752E-02  1.3855E-01 -1.4465E-01
     646     0.81818  1.9203E-02  1.2498E-01 -1.3063E-01
     647     1.12357  3.4163E-02  1.2286E-01  2.3992E-01
     648     1.35036  1.7811E-02  1.2466E-01  1.5837E-01
     649     1.54458 -1.4157E-02  1.2467E-01  1.7380E-01
     650     1.60375 -4.3905E-02  1.7900E-01  2.0115E-01
     651    -1.00000 -1.6465E-01 -9.6903E-02 -1.8711E-01
     652    -1.00000 -1.6320E-01 -8.6975E-02 -1.9765E-01
     653    -1.00000 -1.5978E-01 -8.8855E-02 -1.8885E-01
     654    -0.73229 -1.6554E-01 -9.2896E-02 -1.9328E-01
     655  0.0000E+00  3.8631E-02  9.6204E-02 -5.7170E-02
     656  0.0000E+00  4.6881E-02  9.5753E-02 -4.8183E-02
     657     0.23536  3.7903E-02  1.0278E-01 -5.3112E-02
     658     0.14924  4.6031E-02  9.9208E-02 -5.4074E-02
     659     0.59471  1.7485E-02 -7.5307E-02  1.1290E-01
     660     0.85861  2.4645E-02 -7.6457E-02  1.3071E-01
     661     0.69380  1.1885E-02 -9.2367E-02  1.1702E-01
     662     0.82200  1.9604E-02 -8.9986E-02  1.2425E-01
     663     0.55393  1.9280E-01 -1.4410E-01  2.0744E-02
     664     0.49244  1.8364E-01 -1.5644E-01  1.7793E-02
     665     0.90870  1.9212E-01 -1.8172E-01  3.7405E-02
     666     1.00220  2.1153E-01 -1.8457E-01  2.9434E-02
     667    -0.48100 -1.1156E-01 -2.0171E-01  1.1159E-01
     668    -1.00000 -1.0813E-01 -1.8527E-01  9.0733E-02
     669    -1.00000 -9.3524E-02 -1.9870E-01  1.0864E-01
     670    -0.50727 -1.0472E-01 -1.9253E-01  1.0620E-01
     671     0.89459  2.2175E-01 -1.5206E-01  2.1551E-02
     672     0.28617  6.7822E-02 -7.2678E-02  1.2137E-01
     673     1.23765  9.3536E-02 -1.7898E-01  1.3858E-01
     674     0.64708  4.9321E-02 -1.4840E-01  1.0782E-01
     675     1.05918  7.1472E-02 -1.7792E-01  1.2516E-01
     676     0.97820  9.7623E-02 -1.4940E-01  1.1132E-01
     677     0.67292  7.4678E-02 -7.9792E-02  1.4315E-01
     678     0.33275  1.0150E-01  4.0582E-02 -1.4767E-01
     679     0.93027  1.2435E-01  5.2643E-02 -1.7249E-01
     680     0.49659  1.0435E-01  4.1270E-02 -1.6125E-01
     681     0.42674  1.2235E-01  3.9675E-02 -1.4137E-01
     682     0.95572 -4.8581E-02 -1.6441E-01  1.5008E-01
     683     1.50415 -5.9423E-02 -1.6791E-01  1.7602E-01
     684     0.96002 -4.9402E-02 -1.7110E-01  1.6624E-01
     685    -0.62956 -6.9042E-02 -2.0919E-01  1.4151E-01
     686    -0.54422 -1.2789E-01 -2.0861E-01  1.2552E-01
     687    -1.00000 -3.3336E-02 -2.0702E-01  1.8547E-01
     688    -1.00000 -2.1242E-01 -1.9513E-01  8.1182E-02
     689     0.19437  6.1391E-02 -1.7273E-01  1.3572E-01
     690  1.1480E-02  6.1465E-02 -1.7864E-01  1.3585E-01
     691     0.32743  6.9241E-02 -1.7126E-01  1.4590E-01
     692     1.55768  9.2659E-02  1.6595E-01 -3.5959E-03
     693     1.17881  6.9993E-02  1.4875E-01 -1.3209E-02
     694     1.11318  8.1482E-02  1.4351E-01 -6.4795E-03
     695     1.57328  8.4899E-02  1.6741E-01 -1.6184E-02
     696    -0.44109 -1.9003E-01 -1.4324E-01 -1.6175E-01
     697    -0.46899 -1.9456E-01 -1.5407E-01 -1.4560E-01
     698    -1.00000 -1.9048E-01 -1.4868E-01 -1.5072E-01
     699    -0.41693 -1.9741E-01 -1.4786E-01 -1.5261E-01
     700     1.18374 -4.9052E-02 -1.8715E-01  4.6968E-02
     701     1.24667 -5.5466E-02 -1.7065E-01  5.7618E-02
     702     1.51524 -4.1579E-02 -1.8174E-01  4.0647E-02
     703     1.57127 -2.8657E-02 -1.7187E-01  4.7548E-02
     704     0.66456  2.3580E-02 -6.5072E-02  1.2119E-01
     705     0.42477  1.6808E-02 -6.4288E-02  1.0377E-01
     706     0.58417  1.6682E-02 -8.0286E-02  1.1168E-01
     707     0.49035 -4.6413E-02 -1.7720E-01  1.5694E-01
     708     1.45066 -5.9173E-02 -1.7878E-01  3.4506E-02
     709     2.00000 -5.0280E-02 -1.6926E-01  3.1259E-02
     710     1.65226 -5.2440E-02 -1.9323E-01  2.0991E-02
     711     2.00000 -4.0103E-02 -1.9078E-01  2.3603E-02
     712     1.39680 -7.8787E-02 -2.7947E-03 -2.5684E-01
     713     0.83045  5.7248E-02  1.3117E-01 -1.2644E-02
     714     0.90775  7.3187E-02  1.3328E-01 -3.3265E-03
     715     1.07795  6.5421E-02  1.4644E-01 -7.1558E-03
     716     1.48462  8.4083E-02 -2.3035E-01  9.3120E-02
     717     1.53410  4.2009E-02  1.7197E-01 -3.4338E-02
     718     2.00000  3.7150E-02  1.7927E-01 -4.5582E-02
     719     2.00000  4.5476E-02  1.8615E-01 -4.1492E-02
     720     1.70961  2.7251E-02  1.7371E-01 -4.6258E-02
     721     1.29527 -2.2576E-02 -1.7097E-01  7.0595E-02
     722     1.64640 -3.9166E-02 -1.5578E-01  6.3686E-02
     723     1.28435 -4.2044E-02 -1.7064E-01  6.4516E-02
     724     1.58522 -8.3824E-03 -1.7579E-01  4.8657E-02
     725     1.67196  1.7387E-03 -1.6415E-01  5.5575E-02
     726    -0.32044  4.1474E-02 -1.9294E-01  7.8168E-02
     727    -0.11499  1.5141E-02 -1.4890E-01  5.7764E-02
     728    -0.45751  3.7292E-02 -2.5129E-01  1.1891E-01
     729    -0.13746  2.8555E-02 -1.6900E-01  1.0714E-01
     730     0.99121  7.1021E-02 -1.3060E-01  1.4898E-01
     731     0.61937  8.2085E-02 -9.5450E-02  1.2120E-01
     732     0.64139  5.1559E-02 -1.1110E-01  1.2907E-01
     733     0.62063  7.0163E-02 -1.0546E-01  1.2175E-01
     734    -0.25052  4.1047E-02 -1.7627E-01  9.0269E-02
     735    -0.55749  7.0100E-02 -2.2798E-01  1.0705E-01
     736    -0.46983  4.2306E-02 -1.9790E-01  6.8356E-02
     737     0.56991  5.4424E-02 -8.9423E-02  1.4318E-01
     738     0.51317  5.7187E-02 -7.1712E-02  1.6316E-01
     739     0.38173  5.3011E-02 -1.0889E-01  1.3493E-01
     740     0.20633  3.4238E-02 -9.1233E-02  1.0425E-01
     741     1.10255 -3.7415E-02  2.7001E-02 -2.0074E-01
     742     1.15309 -5.7487E-02  1.8613E-02 -2.0272E-01
     743     0.85463 -4.5168E-02  1.2926E-02 -1.9476E-01
     744     1.42729 -4.8477E-02  3.0467E-02 -2.2811E-01
     745     0.59276  1.2307E-02 -1.9137E-01  8.7447E-02
     746  9.8961E-02 -2.5050E-04 -1.7999E-01  9.2103E-02
     747     0.56167  1.9060E-02 -1.7567E-01  1.0284E-01
     748     0.61232  2.8123E-02 -1.9093E-01  9.8553E-02
     749     0.34572 -1.3052E-01 -4.7740E-02 -1.1486E-01
     750     0.25886 -1.4954E-01 -5.7415E-02 -1.0971E-01
     751     0.60193 -1.5538E-01 -5.2837E-02 -1.5784E-01
     752     0.93755  8.0352E-02 -6.5087E-02  1.5471E-01
     753     0.99384  1.0780E-01 -4.9409E-02  1.5746E-01
     754     0.60846  7.9313E-02 -4.9651E-02  1.3276E-01
     755     0.63092  9.4014E-02 -4.7094E-02  1.3494E-01
     756    -0.40935 -1.2847E-01 -2.4264E-01  1.3156E-01
     757     0.31303 -1.4085E-01 -2.5873E-01  1.5401E-01
     758     0.25819 -1.5003E-01 -2.6570E-01  1.4279E-01
     759     0.26117 -1.6564E-01 -2.5105E-01  1.2986E-01
     760     0.32381 -7.6636E-02 -1.7254E-01  1.2110E-01
     761     0.76404 -9.3105E-02 -1.7512E-01  1.3044E-01
     762     0.17522 -1.2364E-01 -5.4768E-02 -1.2468E-01
     763     0.51854 -1.1873E-01 -2.5556E-02 -1.4876E-01
     764     0.41039 -1.2523E-01 -3.2990E-02 -1.4684E-01
     765     0.35458 -1.4499E-01 -4.7703E-02 -1.6889E-01
     766     1.52520  9.9823E-03 -1.9821E-01  4.6999E-02
     767    -0.12321  6.7256E-02 -1.9284E-01  1.3286E-01
     768    -0.13090  6.1542E-02 -2.0127E-01  1.3448E-01
     769    -0.19969  5.6648E-02 -1.9486E-01  1.3638E-01
     770    -0.55401  5.1915E-02 -2.1932E-01  1.4729E-01
     771     1.16193  7.3588E-02 -1.0738E-01  1.4316E-01
     772     1.55131  9.5347E-02 -9.4807E-02  1.6102E-01
     773     1.55580  1.0755E-01 -1.1088E-01  1.5427E-01
     774     1.09093  7.6463E-02 -9.1897E-02  1.5771E-01
     775     0.66822 -1.4772E-01 -4.1707E-02 -1.6571E-01
     776     0.43778 -1.3229E-01 -4.4138E-02 -1.4234E-01
     777     0.70432 -1.1242E-01 -2.5479E-02 -1.7493E-01
     778     1.05156 -1.4655E-01 -3.8288E-02 -1.9954E-01
     779     0.74995  6.8762E-02  9.2818E-02 -1.5855E-01
     780     1.08592  6.5707E-02  9.0194E-02 -1.8250E-01
     781     0.73962  7.3151E-02  8.8085E-02 -1.5713E-01
     782     1.12917  8.3274E-02  9.8605E-02 -1.7364E-01
     783    -0.39616 -2.6402E-01 -1.1044E-01 -2.2675E-01
     784    -1.00000 -2.7901E-01 -1.1910E-01 -2.3499E-01
     785    -1.00000 -2.6637E-01 -1.1128E-01 -2.3400E-01
     786    -1.00000 -2.5405E-01 -1.1309E-01 -2.3336E-01
     787 -9.7750E-02  1.6494E-03 -1.6141E-01  7.3640E-02
     788     1.61338 -1.0505E-01  1.6304E-02 -2.0749E-01
     789     1.14916 -7.9752E-02  9.9242E-03 -1.8327E-01
     790     1.52933 -1.0566E-01  1.7211E-02 -2.1657E-01
     791     1.10534 -1.0358E-01  6.7969E-04 -1.8816E-01
     792     2.00000 -7.7691E-02 -1.5387E-01  1.2977E-01
     793     1.23614 -3.3777E-01 -1.5820E-01 -2.3486E-01
     794     2.00000 -3.2845E-01 -1.2784E-01 -2.6273E-01
     795     1.15680 -3.0647E-01 -1.2109E-01 -2.3908E-01
     796     1.17917 -3.3340E-01 -1.4918E-01 -2.1892E-01
     797     0.86262 -1.9913E-02  1.2682E-01 -7.5878E-02
     798     0.83328 -2.3795E-02  1.2493E-01 -6.9915E-02
     799     0.71802 -2.5283E-02  1.2080E-01 -7.6890E-02
     800     0.98112 -2.7436E-02  1.3182E-01 -7.7944E-02
     801     1.04906 -9.9490E-02 -1.6807E-01  1.1841E-01
     802     1.24942 -9.6879E-02 -1.6479E-01  1.1408E-01
     803    -0.50926 -9.7969E-03 -1.7984E-01  1.5137E-01
     804 -6.5518E-02 -2.8581E-02 -1.8032E-01  1.5500E-01
     805    -0.53330 -1.8688E-02 -1.8961E-01  1.6161E-01
     806    -0.21891 -1.6287E-02 -1.7421E-01  1.4289E-01
     807    -0.57011 -9.8454E-03 -1.9441E-01  1.6193E-01
     808  9.0984E-03 -2.6796E-02 -1.7682E-01  1.5046E-01
     809     1.44291  7.3290E-02  1.3060E-01 -1.9016E-01
     810     1.48560  8.2563E-02  1.2350E-01 -1.8573E-01
     811     2.00000  9.2649E-02  1.3950E-01 -1.9349E-01
     812     2.00000  6.9703E-02  1.3130E-01 -2.1074E-01
     813    -0.57718 -1.4437E-02 -1.9781E-01  1.7113E-01
     814     0.81723 -1.8935E-01 -9.2392E-02 -2.0708E-01
     815     0.35691 -1.8848E-01 -9.0848E-02 -1.9840E-01
     816     1.67744 -3.3550E-02 -1.5491E-01  7.3582E-02
     817     1.37748 -7.4678E-03 -1.6594E-01  8.0280E-02
     818     1.45730  1.6182E-02 -1.7971E-01  6.6296E-02
     819     0.80723  3.2768E-02 -6.4525E-02  1.3633E-01
     820     1.16086  4.9485E-02 -8.5736E-02  1.4564E-01
     821     0.68973  3.4388E-02 -8.0976E-02  1.2813E-01
     822     0.91328  4.1953E-02 -5.5620E-02  1.5256E-01
     823     0.67466  4.8680E-03 -1.0921E-01  1.1888E-01
     824     0.87039  7.2268E-03 -1.2041E-01  1.2560E-01
     825     0.92301  1.6012E-02 -1.0865E-01  1.2650E-01
     826     1.10051  1.4277E-02 -9.8834E-02  1.3576E-01
     827     0.23368 -1.1697E-02  2.9850E-02 -1.3258E-01
     828     0.34829 -5.7185E-03  3.8558E-02 -1.3782E-01
     829     0.58947 -1.2799E-02  3.3716E-02 -1.5379E-01
     830    -1.00000  2.6129E-02 -1.4531E-01  1.5695E-01
     831    -1.00000  3.4446E-02 -1.5683E-01  1.7014E-01
     832    -0.67495  3.2523E-02 -1.6093E-01  1.5033E-01
     833    -1.00000  2.9417E-02 -1.5143E-01  1.5582E-01
     834    -1.00000  4.5426E-02 -1.6229E-01  1.6577E-01
     835    -1.00000  4.0797E-02 -1.6814E-01  1.5246E-01
     836    -0.72949  5.3716E-02 -1.7935E-01  1.4978E-01
     837     1.74432  4.3455E-02 -1.1547E-01  1.2001E-01
     838     1.52622  4.5558E-02 -1.0923E-01  1.3000E-01
     839     2.00000  4.1478E-02 -1.1010E-01  1.2667E-01
     840    -1.00000  2.1654E-02 -1.4344E-01  1.4096E-01
     841    -0.44378 -2.3255E-01 -3.4084E-01 -7.2223E-02
     842    -1.00000 -3.3416E-01 -1.4187E-01 -3.2642E-02
     843    -0.46615 -2.4655E-01 -3.2510E-01 -5.7069E-02
     844    -1.00000 -1.9772E-01 -3.3809E-01 -6.8872E-02
     845    -0.69890  2.3963E-02 -1.4746E-01  1.3738E-01
     846  7.9176E-02  2.2273E-02 -1.5500E-01  1.2501E-01
     847     0.27117  1.3266E-02 -1.4562E-01  1.2328E-01
     848    -0.17671  1.8670E-02 -1.5636E-01  1.3202E-01
     849 -7.0520E-02  1.1642E-02 -1.5399E-01  1.2734E-01
     850     0.69474  9.8090E-02  5.1078E-02 -1.6570E-01
     851     0.97858  8.4149E-02  5.7864E-02 -1.8341E-01
     852     0.71432  7.7811E-02  4.9236E-02 -1.7747E-01
     853     1.14386  9.5993E-02  6.0738E-02 -1.9230E-01
     854     1.36336  2.9061E-02 -1.4235E-01  1.1007E-01
     855     1.63518  1.5588E-02 -1.3863E-01  1.0735E-01
     856     1.64791  2.5531E-02 -1.2885E-01  1.1546E-01
     857     1.55710  1.0485E-02 -1.3020E-01  1.2002E-01
     858     0.50486  2.2633E-02 -5.4881E-02  1.1601E-01
     859     0.32323  1.8802E-02 -5.2029E-02  1.0477E-01
     860     0.51005  2.0436E-02 -7.5820E-02  1.1171E-01
     861     0.21825  1.4617E-02 -5.3205E-02  8.9802E-02
     862    -0.13151 -3.9824E-02 -1.7025E-01  1.2787E-01
     863     1.22857  7.6556E-03 -1.4350E-01  1.1563E-01
     864 -8.6965E-02 -2.2373E-02 -2.0858E-01  7.4491E-02
     865     0.34909 -3.3385E-03 -2.0606E-01  7.8414E-02
     866    -0.20876 -2.0472E-02 -1.8841E-01  7.8379E-02
     867  5.1121E-02 -2.8619E-02 -2.0530E-01  6.9048E-02
     868     0.71153 -2.0577E-01  1.4749E-02 -7.3748E-02
     869     0.84425 -2.1781E-01  6.5233E-02 -6.5558E-02
     870     0.64416 -1.9689E-01  2.0493E-02 -7.5561E-02
     871     0.25732  1.4760E-01  8.9705E-02 -3.8423E-02
     872  0.0000E+00  1.4436E-01  8.5761E-02 -3.9938E-02
     873     0.44145  1.4550E-01  9.8583E-02 -4.2774E-02
     874  0.0000E+00  1.3561E-01  9.0202E-02 -4.0287E-02
     875     0.16691  1.7493E-02 -1.7699E-01  1.0510E-01
     876     0.16128  9.5033E-03 -1.6817E-01  1.0511E-01
     877 -1.5288E-02 -2.4594E-01 -1.0071E-01 -2.1437E-01
     878     0.37939 -2.3642E-01 -9.3369E-02 -2.1298E-01
     879 -3.4378E-02 -2.4325E-01 -9.9454E-02 -2.0207E-01
     880     0.40939  1.8686E-02 -1.9760E-01  1.1753E-01
     881     0.63658 -1.7284E-02 -1.7323E-01  1.2536E-01
     882     0.50009  1.5550E-02 -1.6089E-01  1.1747E-01
     883     0.81727 -3.0797E-02 -1.3571E-01  1.4516E-01
     884     0.38912  1.1639E-01  7.0551E-02  3.4834E-02
     885     0.68321  1.2827E-01  8.7556E-02  3.2942E-02
     886     0.32599  1.1807E-01  6.8068E-02  3.0073E-02
     887     0.69629  1.3336E-01  7.7340E-02  4.0552E-02
     888    -0.17445 -1.6203E-01 -2.4011E-01  1.0150E-01
     889    -1.00000 -1.4152E-01 -2.3638E-01  1.0115E-01
     890    -1.00000 -1.4825E-01 -2.2138E-01  8.3931E-02
     891    -0.37463 -1.6491E-01 -2.3219E-01  8.5663E-02
     892    -0.33838 -2.1460E-01 -2.8331E-01 -5.2351E-02
     893    -1.00000 -1.8743E-01 -2.6173E-01 -4.7627E-02
     894    -1.00000 -2.1091E-01 -2.7599E-01 -7.6425E-02
     895    -0.46886 -1.8671E-01 -2.8418E-01 -4.3479E-02
     896    -0.50336  9.8100E-02 -2.8258E-01  2.3942E-02
     897    -0.56833  3.5690E-02 -3.0660E-01  5.6407E-02
     898    -0.12740  3.9860E-02 -2.7393E-01  5.4479E-02
     899    -0.44183  1.4554E-02 -3.1354E-01  6.9678E-02
     900  5.8968E-02 -7.2538E-03 -7.7833E-02  3.4015E-02
     901     0.14696 -4.6299E-02 -1.1229E-01  4.8855E-02
     902     0.12830  1.2654E-03 -1.1179E-01  4.5090E-02
     903  0.0000E+00 -1.7090E-02 -5.1915E-02  2.1978E-02
     904     0.90652  7.1868E-02 -1.8855E-01  1.2360E-01
     905     0.82234  7.3804E-02 -2.0537E-01  1.3119E-01
     906     0.30314 -1.6521E-01 -6.6793E-02 -1.9845E-01
     907     0.52747 -1.6479E-01 -5.3356E-02 -2.0476E-01
     908  7.1531E-02 -1.6517E-01 -6.8516E-02 -1.8387E-01
     909 -7.7278E-03 -1.6757E-01 -7.2028E-02 -1.9843E-01
     910     0.29053  4.5261E-02  3.7166E-02 -1.6348E-01
     911  0.0000E+00  3.4654E-02  3.0308E-02 -1.6206E-01
     912  0.0000E+00  4.1252E-02  3.1327E-02 -1.6282E-01
     913     0.23128  3.4930E-02  3.1204E-02 -1.6865E-01
     914     0.16517 -1.9698E-01 -1.8436E-01  3.4131E-02
     915  9.3447E-02 -1.8778E-01 -1.7812E-01  2.8164E-02
     916     0.25627 -1.8755E-01 -1.7883E-01  4.1232E-02
     917     0.81854 -2.1070E-01 -1.7786E-01  4.2759E-02
     918     0.88351  1.7716E-01 -2.1807E-02  4.8895E-02
     919     0.74884  1.7056E-01 -2.7199E-02  5.0646E-02
     920     0.48859  1.6259E-01 -1.8256E-02  3.9093E-02
     921     0.35882  1.5652E-01 -2.4232E-02  4.8043E-02
     922     0.47770  1.5765E-01  3.3044E-03  5.6325E-02
     923     0.89641  1.7260E-01  5.8088E-03  6.4654E-02
     924     0.72372  1.7073E-01 -8.9914E-04  5.8329E-02
     925     0.70392  1.6654E-01 -3.3187E-03  6.9538E-02
     926     1.12510 -1.2306E-01 -1.7039E-01  8.7486E-02
     927     0.89782 -6.7517E-02 -1.4006E-01  8.4859E-02
     928     1.15744 -7.2292E-02 -1.1981E-01  9.1926E-02
     929     0.91747 -5.6182E-02 -1.5212E-01  5.9465E-02
     930     0.99587  2.3417E-01 -5.2583E-02 -1.2859E-02
     931     1.45230  2.6135E-01 -4.5334E-02 -1.5101E-02
     932     0.94515  2.4199E-01 -5.3700E-02 -1.9249E-02
     933     1.47725  2.5644E-01 -5.8693E-02 -4.6660E-03
     934     1.59861  2.0601E-01 -2.6596E-02  3.9958E-02
     935     2.00000  2.1033E-01 -2.4787E-02  4.3012E-02
     936     2.00000  2.0532E-01 -2.8438E-02  4.8565E-02
     937     1.54403  2.0284E-01 -1.9893E-02  4.1737E-02
     938     1.12681  1.9919E-01 -3.1790E-02  2.1805E-02
     939     1.54910  2.0683E-01 -3.7631E-02  3.6800E-02
     940     1.13905  1.9000E-01 -4.0878E-02  3.3671E-02
     941     1.17174  1.9081E-01 -3.3993E-02  3.3970E-02
     942     1.02209  1.9474E-01 -2.6050E-02  2.2502E-02
     943     1.03009  1.9523E-01 -2.0912E-02  2.1255E-02
     944     1.13108  2.0666E-01 -2.0300E-02  1.1967E-02
     945     0.73770  1.9004E-01 -1.5395E-02  7.5344E-03
     946     0.21598  1.6353E-01  1.5387E-02  1.5786E-02
     947  0.0000E+00  1.6188E-01  1.9698E-02  1.0789E-02
     948  0.0000E+00  1.6405E-01  1.4670E-02  1.4557E-02
     949  0.0000E+00  1.6710E-01  2.0385E-02  5.1169E-03
     950     0.41920  1.6660E-01  1.2899E-02  2.5650E-02
     951     0.42232  1.7375E-01  1.4861E-02  1.6721E-02
     952     0.46691  1.7121E-01  1.8869E-02  2.1125E-02
     953     0.31300  1.5455E-01 -1.6498E-02  5.2712E-02
     954  0.0000E+00  1.5115E-01 -1.0074E-02  4.7828E-02
     955  0.0000E+00  1.5093E-01 -1.3493E-02  4.4450E-02
     956     0.32507  1.5942E-01 -1.0084E-02  4.0029E-02
     957     0.39011  1.5998E-01 -9.4452E-03  4.7844E-02
     958     1.18640  2.0375E-01 -7.4968E-03  2.4395E-02
     959     1.10163  2.0772E-01  1.2752E-03  1.1635E-02
     960     0.68027  1.8702E-01  1.4552E-03  1.5439E-02
     961     0.72038  1.8852E-01 -3.8840E-03  1.4979E-02
     962     1.25457  1.3539E-01  1.0758E-02  1.4257E-01
     963     1.06663  1.2960E-01 -5.4052E-04  1.3891E-01
     964     1.14721  1.4055E-01  9.5066E-03  1.3611E-01
     965     0.75951  1.2231E-01  6.1966E-03  1.2331E-01
     966     0.90435  2.4423E-01 -3.6673E-02 -3.4260E-02
     967     0.90684  2.3564E-01 -3.9681E-02 -2.4088E-02
     968     0.42815  2.1514E-01 -3.0584E-02 -3.4249E-02
     969     0.97081  2.3815E-01 -2.6911E-02 -3.4254E-02
     970     1.97031 -7.2661E-03  2.3720E-03 -3.3242E-03
     971     1.98842 -3.6080E-03  4.2892E-03 -1.3030E-03
     972     2.00000 -5.0308E-03  8.4825E-03 -1.6726E-03
     973     1.97198 -7.3258E-03  4.6262E-03 -5.1681E-03
     974 -4.6230E-02 -2.4993E-01 -1.2193E-01 -8.8970E-02
     975    -0.19923 -2.5496E-01 -1.2102E-01 -9.2134E-02
     976     0.33550 -2.6724E-01 -1.1800E-01 -9.9175E-02
     977  9.9968E-03 -2.6125E-01 -1.2987E-01 -8.4553E-02
     978     0.42987  1.6908E-01 -1.0642E-02  2.7883E-02
     979     1.00324  1.8629E-01 -1.3969E-02  3.6485E-02
     980     0.74523  1.7510E-01 -1.9536E-02  4.0708E-02
     981     0.74259  1.7521E-01 -1.5169E-02  3.8697E-02
     982     0.84570  1.8684E-01 -8.1109E-03  2.6529E-02
     983     0.71395  1.8055E-01 -4.9997E-03  2.7802E-02
     984     1.12351  1.9494E-01 -5.4368E-03  3.2741E-02
     985     1.23142  1.8889E-01 -1.9219E-02  5.7329E-02
     986     1.23884  1.9018E-01 -1.8583E-02  4.9765E-02
     987     1.69312  2.0354E-01 -2.1056E-02  5.2816E-02
     988     1.45398  1.9883E-01 -1.5607E-02  4.5579E-02
     989     0.68923  1.7680E-01 -2.6662E-02  2.5850E-02
     990     0.35570  1.6483E-01 -1.9956E-02  2.3113E-02
     991     0.34111  1.6073E-01 -2.8248E-02  2.7424E-02
     992     0.31669  1.6621E-01 -1.9839E-02  1.5152E-02
     993     0.73676  1.7363E-01 -2.9739E-02  3.4418E-02
     994     0.52790  1.6446E-01 -1.7261E-02  4.4231E-02
     995     0.54505 -1.3890E-01 -8.4796E-03 -1.2327E-01
     996     0.15664 -1.3152E-01 -5.5261E-02 -1.1452E-01
     997     0.25885 -1.1718E-01 -3.5487E-02 -1.0485E-01
     998     0.28659 -1.5226E-01 -4.2151E-02 -1.3620E-01
     999     0.69122  1.8619E-01 -2.3570E-02  1.0122E-02
    1000     1.98351 -5.5427E-03  4.1508E-03  1.7936E-04
    1001     0.99453  1.7083E-01  7.2955E-02  4.2261E-02
    1002     0.79847  1.5883E-01  6.0470E-02  4.3182E-02
    1003     0.67300  1.5633E-01  6.6530E-02  2.8768E-02
    1004     0.73784  1.5240E-01  6.6100E-02  3.9261E-02
    1005     1.15919  1.9318E-01 -7.5086E-03  4.3316E-02
    1006     0.74210  1.7497E-01 -1.0018E-02  4.5059E-02
    1007     1.07929  1.8639E-01 -1.5139E-02  5.1097E-02
    1008     1.01909  1.8594E-01 -1.2130E-02  4.0891E-02
    1009     0.49164  4.3299E-02  1.2027E-01 -7.5973E-02
    1010     0.28383  4.4421E-02  1.0771E-01 -8.0098E-02
    1011     0.17182  3.6883E-02  1.0100E-01 -6.8011E-02
    1012     1.56646  2.0406E-01 -1.7242E-02  5.7741E-02
    1013     1.04912  2.1281E-01  1.9262E-02 -1.6594E-02
    1014     0.87129  2.0436E-01  1.5410E-02 -3.6165E-03
    1015     0.61054  1.9411E-01  1.1305E-02 -8.5669E-03
    1016     0.63336  1.9543E-01  2.0590E-02 -1.5382E-02
    1017     1.07438  1.8251E-01 -2.3006E-02  5.7040E-02
    1018     1.48900  1.9778E-01 -2.6467E-02  4.7267E-02
    1019     2.00000  2.0476E-01 -1.9026E-02  4.6615E-02
    1020     1.15336 -2.6285E-01 -4.8222E-02 -1.6999E-01
    1021     1.07895 -2.8584E-01 -6.6937E-02 -1.3648E-01
    1022     2.00000 -3.1199E-01 -8.4220E-02 -1.7809E-01
    1023     1.25287 -2.7044E-01 -1.8265E-02 -1.6165E-01
    1024     0.70819  1.9328E-01 -1.7991E-02 -1.3169E-04
    1025     1.06729  2.0537E-01 -2.5074E-02  8.9177E-03
    1026     0.66581 -1.8353E-01  5.4112E-02 -7.1847E-02
    1027     1.21071 -2.3470E-01  7.6251E-02 -1.0911E-01
    1028     0.71575 -2.0211E-01  1.1005E-02 -9.0453E-02
    1029     1.23776 -2.3838E-01  4.3246E-02 -1.3698E-01
    1030     0.85095 -9.7300E-02 -2.0250E-01  1.7976E-02
    1031     0.44051 -1.2023E-01 -2.0815E-01  1.4015E-02
    1032     0.38135 -1.0721E-01 -1.9694E-01  2.0566E-02
    1033    -0.15883 -5.1711E-02 -1.7044E-01  7.7544E-02
    1034  4.2262E-02 -4.0955E-02 -1.6664E-01  8.9169E-02
    1035     0.22803 -5.8340E-02 -1.6940E-01  8.4217E-02
    1036     0.29059 -4.9252E-02 -1.7316E-01  8.0508E-02
    1037     0.70072 -2.7386E-01 -1.5365E-01 -1.1441E-01
    1038     1.29947 -3.0960E-01 -1.7951E-01 -1.1412E-01
    1039     1.24780 -3.0316E-01 -1.4427E-01 -1.3418E-01
    1040     0.73771 -2.8543E-01 -1.4826E-01 -1.0834E-01
    1041    -0.23903 -1.6760E-01 -2.1465E-01  1.2689E-02
    1042    -0.57449 -1.5973E-01 -1.8024E-01  2.1479E-02
    1043    -0.10079 -1.3914E-01 -1.9635E-01  1.7673E-02
    1044 -8.6984E-02 -1.4345E-01 -2.1325E-01  1.5939E-02
    1045     0.55346 -2.5885E-01 -1.6547E-01 -1.3399E-01
    1046  1.0492E-03 -2.3100E-01 -1.4893E-01 -1.1333E-01
    1047     0.46723 -2.5508E-01 -1.6674E-01 -1.0946E-01
    1048     0.61386 -2.6457E-01 -1.4580E-01 -1.3130E-01
    1049     1.07278 -3.1849E-01 -1.6488E-01 -8.6966E-02
    1050     2.00000 -3.4313E-01 -1.3845E-01 -1.0328E-01
    1051     1.29691 -3.2541E-01 -1.2792E-01 -8.8375E-02
    1052     2.00000 -3.4631E-01 -1.4543E-01 -8.2924E-02
    1053    -0.14998 -3.4554E-02 -1.4933E-01 -8.3002E-02
    1054    -0.25160  5.0705E-04 -2.1188E-01 -9.0284E-02
    1055    -0.49498 -6.4748E-02 -2.5141E-01 -1.6018E-01
    1056    -0.25781 -8.2799E-02 -1.4135E-01 -1.1721E-01
    1057     2.00000 -3.0302E-01 -1.0811E-01 -1.7688E-01
    1058     2.00000 -3.1285E-01 -1.2815E-01 -1.5366E-01
    1059     1.27962 -2.8985E-01 -9.3739E-02 -1.6574E-01
    1060     1.12189 -2.9653E-01 -1.1138E-01 -1.4050E-01
    1061     0.91995 -2.0933E-01  1.7442E-01 -6.3230E-02
    1062     0.71431 -1.2640E-01  2.4781E-01 -6.7069E-02
    1063     0.86608 -1.0449E-01  5.3119E-02 -7.4413E-02
    1064     0.77202 -1.1650E-01  2.4817E-01 -5.3960E-02
    1065     0.61159 -2.6280E-01  1.1529E-01 -9.8642E-02
    1066  0.0000E+00 -3.4656E-01  1.0049E-01 -1.3954E-01
    1067     0.69741 -3.4135E-01  1.5874E-01 -7.1829E-02
    1068     0.67581 -3.1278E-01  1.5085E-01 -1.2213E-01
    1069    -0.24326 -1.2685E-01 -1.3768E-01 -7.6890E-02
    1070    -0.50463 -1.8248E-01 -1.6264E-01 -1.4424E-01
    1071    -0.51351 -1.4978E-01 -2.4948E-01 -3.4911E-02
    1072    -0.48101 -1.3795E-01 -2.1971E-01 -2.8844E-02
    1073    -0.74184 -1.8792E-01 -6.2188E-02 -1.2561E-01
    1074    -0.65914 -1.8038E-01 -5.9959E-02 -1.3409E-01
    1075    -0.69172 -1.7895E-01 -7.2415E-02 -1.2800E-01
    1076    -1.00000 -1.7500E-01 -5.8863E-02 -1.2528E-01
    1077 -7.7447E-02 -2.8909E-01 -3.9189E-01 -1.7105E-01
    1078    -1.00000 -2.5370E-01 -3.6129E-01 -1.7900E-01
    1079    -0.20536 -2.5222E-01 -3.6525E-01 -1.3606E-01
    1080 -3.0016E-03 -2.6541E-01 -3.5844E-01 -1.4015E-01
    1081    -0.11733 -1.4188E-01 -8.1988E-02 -5.8479E-02
    1082    -0.29858 -1.4432E-01 -1.0122E-01 -5.6682E-02
    1083    -0.19643 -1.1149E-01 -9.6771E-02 -3.7690E-02
    1084    -0.31107 -1.3808E-01 -1.0784E-01 -6.6471E-02
    1085     0.27699 -2.9690E-01 -1.8895E-01 -8.4139E-02
    1086     0.11479 -2.7316E-01 -2.2083E-01 -9.3677E-02
    1087  4.1741E-02 -3.1214E-01 -2.1742E-01 -1.1036E-01
    1088     0.71433 -2.8030E-01 -1.7252E-01 -9.6566E-02
    1089     0.99436 -2.8260E-01 -1.2022E-01 -1.4665E-01
    1090     0.61466 -2.5184E-01 -1.1275E-01 -1.5008E-01
    1091     1.35978 -2.8948E-01 -1.0754E-01 -1.7640E-01
    1092     1.25345 -2.9063E-01 -1.3916E-01 -1.6144E-01
    1093     0.15116 -2.6180E-01 -2.7267E-01 -1.1018E-01
    1094 -1.7486E-02 -2.9138E-01 -2.5360E-01 -7.5676E-02
    1095 -6.8271E-02 -2.8656E-01 -2.5514E-01 -9.7134E-02
    1096     0.18884 -2.8790E-01 -2.3560E-01 -7.9894E-02
    1097     0.89384 -1.1965E-01 -1.6113E-01  2.9117E-02
    1098     1.30745 -1.2388E-01 -1.4571E-01  3.6054E-02
    1099     0.92382 -1.2568E-01 -1.5336E-01  3.5000E-02
    1100     1.00507 -1.3100E-01 -1.5493E-01  3.1757E-02
    1101     0.15300 -2.6332E-01 -1.2374E-01 -8.4619E-02
    1102     0.20341 -2.7378E-01 -1.3549E-01 -7.8406E-02
    1103     0.60979 -2.7860E-01 -1.1561E-01 -8.5752E-02
    1104     0.15527 -2.6600E-01 -1.3120E-01 -7.6231E-02
    1105     0.24903 -8.1606E-02  6.9480E-02 -6.5269E-02
    1106  0.0000E+00 -7.0634E-02  6.9945E-02 -5.8595E-02
    1107     0.26253 -7.3134E-02  7.4195E-02 -6.7980E-02
    1108     0.12015 -6.9452E-02  6.1205E-02 -5.8860E-02
    1109     0.61356 -8.8227E-02  1.0365E-01 -7.6684E-02
    1110     0.59887 -8.6610E-02  1.0864E-01 -7.1758E-02
    1111     0.68604 -1.0187E-01  1.0928E-01 -7.3576E-02
    1112     1.00339 -9.6024E-02  1.2403E-01 -8.8576E-02
    1113     0.57645 -2.6458E-01 -1.2943E-01 -1.2669E-01
    1114    -0.21951 -1.0066E-01 -1.3255E-01 -1.0660E-01
    1115 -1.8935E-02 -5.2199E-02 -7.6557E-02 -6.4278E-02
    1116     0.84105  1.5823E-01  4.6892E-02  5.9923E-02
    1117     0.88806  1.5589E-01  5.9069E-02  5.6113E-02
    1118     0.80546  1.5016E-01  4.8474E-02  6.4681E-02
    1119     0.59662  1.4074E-01  4.9117E-02  5.4929E-02
    1120    -0.59351 -1.7744E-01 -1.5185E-01 -1.7228E-01
    1121    -0.52211 -1.1079E-01 -2.1900E-01 -1.1843E-01
    1122    -0.19105 -1.2534E-01 -1.0914E-01 -1.1386E-01
    1123     0.47606 -2.5364E-01 -9.5822E-02 -1.2801E-01
    1124    -0.26325 -2.3797E-01 -1.0686E-01 -1.0749E-01
    1125 -3.6452E-02 -2.2621E-01 -1.0052E-01 -1.1400E-01
    1126 -3.8671E-02 -2.3029E-01 -9.4494E-02 -1.2013E-01
    1127     0.97850 -2.2920E-01 -5.6667E-02 -2.0252E-01
    1128     1.17227 -2.5226E-01 -6.0906E-02 -2.0486E-01
    1129     1.46671 -2.5608E-01 -5.6361E-02 -2.3358E-01
    1130     1.41823 -2.3609E-01 -2.8681E-02 -2.2508E-01
    1131     1.84436 -1.4188E-02 -8.7346E-03 -3.0852E-02
    1132     1.77801 -9.5748E-03 -2.2533E-02 -4.3027E-02
    1133     1.81066 -9.0917E-03 -1.2470E-02 -3.9534E-02
    1134     1.78076 -1.7586E-02 -1.5803E-02 -4.6177E-02
    1135     1.22764  1.9586E-01 -5.0552E-04  5.7662E-02
    1136     1.07464  1.8815E-01 -7.3441E-03  5.3007E-02
    1137     1.51136  2.0739E-01 -9.4584E-03  4.9608E-02
    1138     0.89750  1.8544E-01  2.3450E-03  4.1240E-02
    1139     1.07629  2.0872E-01 -8.9048E-03  7.2451E-04
    1140     1.21147  2.0709E-01 -1.3531E-02  1.1991E-02
    1141     0.97168  1.8778E-01 -2.7672E-02  2.9674E-02
    1142     1.46045  2.0400E-01 -2.8208E-02  3.6483E-02
    1143     1.11278  1.9262E-01 -2.2756E-02  3.1000E-02
    1144     0.25294  1.7228E-01  1.2317E-02  7.0920E-03
    1145  0.0000E+00  1.6944E-01  1.3541E-02  7.3229E-03
    1146  0.0000E+00  1.7015E-01  9.4463E-03  7.2706E-03
    1147  0.0000E+00  1.7308E-01  1.4301E-02  2.4763E-03
    1148  0.0000E+00  1.6622E-01  6.1963E-03  1.3855E-02
    1149     0.42196  1.7514E-01  8.7112E-03  1.5756E-02
    1150     0.24246  1.6906E-01  4.5983E-03  1.5203E-02
    1151     1.03841  1.8025E-01 -1.2076E-02  9.0692E-02
    1152     0.94911  1.7706E-01 -9.9489E-03  8.1571E-02
    1153     1.52722  1.9697E-01 -4.6764E-03  8.3568E-02
    1154     0.90303  1.7483E-01 -3.0327E-03  8.1599E-02
    1155     0.28094  1.5439E-01 -2.7467E-03  4.9627E-02
    1156  0.0000E+00  1.5084E-01 -9.6688E-04  4.2447E-02
    1157  0.0000E+00  1.4869E-01 -6.7874E-03  5.3315E-02
    1158  0.0000E+00  1.5037E-01 -6.2438E-03  4.8550E-02
    1159     0.40027  1.0101E-02  1.0441E-01 -1.1886E-01
    1160     0.32750  3.9356E-03  9.9088E-02 -1.2034E-01
    1161     0.80669  6.1964E-03  1.1811E-01 -1.3221E-01
    1162     0.71152 -7.5428E-03  1.1035E-01 -1.2520E-01
    1163     0.26921  1.5696E-01 -2.3897E-03  4.3791E-02
    1164     0.71100  1.6122E-01 -6.0792E-02  5.6093E-02
    1165     0.92647  1.6936E-01 -5.9873E-02  6.4227E-02
    1166     0.62847  1.5402E-01 -6.1794E-02  6.3016E-02
    1167     1.28059  1.8739E-01 -2.6589E-02  4.8759E-02
    1168     0.81283  1.7444E-01 -2.7976E-02  4.3888E-02
    1169     1.10489  1.8024E-01 -3.3001E-02  5.2565E-02
    1170     1.43252  2.1171E-01 -1.9867E-02  2.6640E-02
    1171     1.36498  2.0610E-01 -1.6994E-02  3.1228E-02
    1172     1.06847  1.8779E-01 -2.2543E-02  3.6696E-02
    1173     1.10337  1.8690E-01 -2.0320E-02  4.0114E-02
    1174     0.61798  1.6671E-01  8.9660E-03  5.1950E-02
    1175     0.29819  1.4945E-01  4.9733E-03  6.0660E-02
    1176     0.32251  1.5235E-01  9.3314E-03  5.2322E-02
    1177  0.0000E+00  1.4590E-01  2.3033E-03  5.8869E-02
    1178     0.79325  1.6767E-01 -1.9202E-02  1.1096E-01
    1179     0.36524  1.5217E-01 -1.8706E-02  1.0094E-01
    1180     0.50678  1.5603E-01 -2.0571E-02  1.1390E-01
    1181     0.39384  1.5409E-01 -2.6298E-02  1.1236E-01
    1182     0.27541  8.5265E-02 -7.1978E-02  1.0805E-01
    1183     0.29874  8.9155E-02 -7.2343E-02  1.0116E-01
    1184     0.27197  1.0258E-01 -6.2354E-02  1.0366E-01
    1185  0.0000E+00  8.5980E-02 -6.2090E-02  9.4876E-02
    1186     0.78827  1.6775E-01 -2.7505E-02  1.1602E-01
    1187     1.31229  1.8989E-01 -1.7269E-02  1.1758E-01
    1188     0.89149  1.7334E-01 -2.2697E-02  1.0360E-01
    1189     0.72842  1.6632E-01 -1.6166E-02  9.7046E-02
    1190     0.83759  1.7178E-01 -2.1234E-02  9.2327E-02
    1191     0.40313  1.5633E-01 -2.6850E-02  9.4443E-02
    1192     1.01715  1.7921E-01 -2.9943E-02  1.0149E-01
    1193     1.43241  1.9856E-01 -3.7115E-02  1.1550E-01
    1194     0.89164  1.7278E-01 -3.5309E-02  1.0953E-01
    1195     1.07078  1.7983E-01 -3.0823E-02  1.1635E-01
    1196     0.53240  1.9889E-01 -5.0362E-03 -2.8633E-02
    1197     0.34645  1.8730E-01 -1.4826E-02 -1.9619E-02
    1198     0.38888  1.8948E-01 -8.1179E-03 -1.7749E-02
    1199     0.73682  2.0508E-01 -1.4030E-02 -2.0016E-02
    1200     1.38423  1.9655E-01 -2.2397E-02  1.0293E-01
    1201     1.98123 -5.1336E-03  1.9508E-03 -2.2594E-03
    1202     1.97041 -6.5578E-03  1.7993E-03 -4.6549E-03
    1203    -0.12116 -2.8195E-01 -2.5024E-01 -5.7390E-02
    1204    -0.38079 -3.1855E-01 -2.7324E-01 -7.5893E-02
    1205    -0.51194 -3.1614E-01 -2.2555E-01 -5.1991E-02
    1206     1.15981  1.0222E-01 -1.8463E-01  1.0528E-01
    1207     1.42008  1.3705E-01 -1.9101E-01  1.0371E-01
    1208     0.95516  1.2085E-01 -1.5323E-01  8.6870E-02
    1209     0.77095  9.5135E-02 -1.5999E-01  8.2804E-02
    1210     0.68506  1.5606E-01  1.2640E-02  8.0614E-02
    1211     0.63856  1.5471E-01  2.1425E-02  7.0724E-02
    1212     0.96246  1.6498E-01  2.2684E-02  8.0892E-02
    1213     0.56515  1.4618E-01  2.1921E-02  7.4613E-02
    1214     0.75764 -2.4651E-01 -1.3897E-01 -1.2093E-01
    1215     0.21238 -2.3954E-01 -1.4370E-01 -1.1653E-01
    1216     0.57839 -2.6560E-01 -1.3827E-01 -1.2992E-01
    1217     1.05222 -2.7896E-01 -1.4387E-01 -1.0152E-01
    1218     0.52178  4.4553E-02  2.5424E-02  1.2999E-01
    1219     0.72953  4.9016E-02  3.8481E-02  1.4736E-01
    1220     0.78724  6.3486E-02  2.4892E-02  1.4508E-01
    1221     0.91229  5.2936E-02  2.3574E-02  1.7092E-01
    1222     1.26550  1.7411E-01 -8.6409E-02  7.6589E-02
    1223     1.53332  1.8976E-01 -8.0131E-02  7.6727E-02
    1224     2.00000 -1.9482E-01 -7.0685E-02 -2.4084E-01
    1225     1.33993 -2.3531E-01 -9.6378E-02 -2.3223E-01
    1226     1.39112 -1.9258E-01 -6.9036E-02 -2.1857E-01
    1227    -0.11364 -7.9826E-02 -1.2218E-01  4.5864E-02
    1228 -5.7890E-02 -7.7446E-02 -7.8654E-02 -1.0544E-04
    1229    -0.13908 -1.3715E-01 -1.0457E-01 -2.3526E-02
    1230 -2.7437E-02 -5.9482E-02 -4.8798E-02  1.4601E-03
    1231     0.74221  1.7707E-01 -3.6704E-02  2.5372E-02
    1232     0.70552  1.7620E-01 -4.4325E-02  2.8548E-02
    1233     0.68349  1.7304E-01 -4.1392E-02  3.4581E-02
    1234     1.03787  1.9086E-01  8.0106E-03  4.4595E-02
    1235     1.55554  2.0785E-01  8.2651E-03  6.1645E-02
    1236     1.08310  1.8847E-01  1.5651E-02  5.2671E-02
    1237     1.42442  2.0894E-01  1.7074E-02  5.4176E-02
    1238     1.14333  1.8035E-01 -4.0229E-02  1.0812E-01
    1239     1.53081  1.9766E-01 -4.0278E-02  1.0365E-01
    1240     0.67394  1.5880E-01 -7.7925E-02  5.5493E-02
    1241     0.70789  1.6537E-01 -7.3762E-02  4.7899E-02
    1242     1.11209  1.7667E-01 -7.6375E-02  6.0528E-02
    1243     0.70324  1.6522E-01 -6.7536E-02  5.0758E-02
    1244     0.62880  1.7801E-01  4.7519E-03  2.7874E-02
    1245     0.30025  1.6549E-01  7.5997E-03  2.3400E-02
    1246     0.46752  1.6754E-01  1.6406E-03  3.7291E-02
    1247     0.25270  1.6288E-01  5.8718E-04  2.8211E-02
    1248     0.40403  1.7076E-01  1.9624E-03  2.3312E-02
    1249     1.40120  2.0898E-01  1.7462E-03  4.3811E-02
    1250     0.81988  1.8202E-01 -4.9463E-03  3.5204E-02
    1251     1.09258  1.7191E-01 -5.5697E-02  7.6826E-02
    1252     0.87191  1.6000E-01 -6.0080E-02  8.0900E-02
    1253     1.34465  1.7686E-01 -6.6092E-02  8.8644E-02
    1254     1.16299  1.7081E-01 -6.2184E-02  7.7592E-02
    1255     0.98466  2.0481E-01  3.7967E-02  5.5199E-03
    1256     0.70673  1.8807E-01  3.4881E-02  1.1628E-02
    1257     0.83194  1.9669E-01  4.8407E-02 -2.3561E-03
    1258     1.24575  2.1574E-01  4.9968E-02  9.1592E-03
    1259     0.87682  2.5210E-01 -1.1447E-02 -7.6133E-02
    1260     1.26222  2.8662E-01 -2.4459E-03 -1.0517E-01
    1261     1.40089  2.9289E-01 -1.5005E-02 -6.3371E-02
    1262     1.45758  2.8368E-01  1.2708E-02 -1.0001E-01
    1263     0.41031  1.3782E-01  2.5603E-03  1.0722E-01
    1264     0.83741  1.4806E-01  1.2910E-02  1.1289E-01
    1265     0.48862  1.3611E-01  3.2026E-03  1.1102E-01
    1266     0.43618  1.3432E-01  1.0907E-02  1.0274E-01
    1267     0.99777  2.0942E-01  7.7535E-03  7.2253E-04
    1268     0.65886  1.9271E-01  5.3709E-03  3.8685E-03
    1269     0.78053  1.9705E-01  1.8362E-03  9.8853E-04
    1270     1.37213  2.2360E-01 -1.0042E-03  5.4674E-03
    1271     1.03481  2.0396E-01 -2.6037E-03  9.8603E-03
    1272     1.25611  1.7864E-01 -7.2387E-02  6.4710E-02
    1273     1.12085  1.6951E-01 -8.1028E-02  6.8959E-02
    1274     0.72935  8.8239E-02 -1.0677E-01  1.1818E-01
    1275     0.54010  6.7483E-02 -1.0642E-01  1.0984E-01
    1276     0.31205  6.2721E-02 -8.9640E-02  9.8726E-02
    1277     0.66268  1.1757E-01  3.4136E-02  1.0229E-01
    1278     0.37715  1.0670E-01  3.1978E-02  9.0005E-02
    1279     0.57960  1.0557E-01  3.4617E-02  1.0223E-01
    1280     0.30739  1.0756E-01  2.4221E-02  9.1932E-02
    1281     0.34903  8.5989E-02 -8.2099E-02  9.5451E-02
    1282     0.28045  6.6951E-02 -8.8177E-02  9.2932E-02
    1283     1.09613  2.0561E-01 -7.6372E-03  9.4058E-03
    1284     1.04948  2.0824E-01 -2.5944E-03 -1.2114E-03
    1285     1.47829  2.2311E-01 -3.6542E-03  2.5127E-03
    1286     0.97424  2.0528E-01  1.1158E-03 -2.7035E-03
    1287     1.56238  2.0304E-01  1.2852E-02  6.6937E-02
    1288     1.56872  2.0375E-01  2.0566E-03  7.1493E-02
    1289     1.03427  1.8468E-01  5.5922E-03  5.8158E-02
    1290     0.65483  1.7043E-01 -5.8856E-02  4.0635E-02
    1291     0.29902  1.5552E-01 -5.3900E-02  3.6968E-02
    1292     0.68179  1.6528E-01 -5.8544E-02  4.7411E-02
    1293     0.49227  1.5893E-01 -6.1820E-02  4.4827E-02
    1294     1.41747  2.1401E-01  1.3262E-02  4.2757E-02
    1295     0.84649  1.9235E-01  1.2156E-02  1.8723E-02
    1296     0.43835  1.7929E-01  1.9646E-02  5.6208E-03
    1297     0.72769  1.3942E-01  1.7329E-02  1.0915E-01
    1298     0.89689  1.4703E-01  9.9741E-03  1.1939E-01
    1299     1.57505  2.1060E-01 -4.9377E-03  3.8393E-02
    1300     1.54641  2.1774E-01  5.0997E-03  3.6420E-02
    1301     1.09210  1.9512E-01  3.2412E-04  3.4485E-02
    1302     1.37970  2.1440E-01  4.7261E-03  3.1557E-02
    1303     1.49457  8.8299E-02  2.0769E-01  1.7514E-02
    1304     1.46642  1.0083E-01  1.8053E-01  2.4945E-02
    1305     1.59756  9.1332E-02  1.8680E-01  4.5625E-03
    1306     1.18688  7.5146E-02  1.6589E-01  2.3607E-02
    1307     0.95680  2.0404E-01  7.2803E-03  8.7922E-03
    1308     1.46608  2.3008E-01  1.0388E-02  4.1539E-04
    1309     1.46571  2.2999E-01  8.7682E-03 -1.0464E-02
    1310     1.13729  2.0095E-01  9.1783E-03  3.3077E-02
    1311     0.61294 -1.2463E-01  8.9032E-04 -1.3019E-01
    1312     0.93920 -1.5885E-01  4.6244E-03 -1.7003E-01
    1313     0.92261 -1.4390E-01  1.9471E-02 -1.4951E-01
    1314     0.46245 -1.4212E-01 -2.2584E-02 -1.4348E-01
    1315  4.4723E-02 -1.0109E-01 -1.7254E-01  4.0588E-02
    1316    -0.26773 -9.7483E-02 -1.7525E-01  4.4397E-02
    1317     0.16594 -9.6305E-02 -1.7621E-01  4.6509E-02
    1318  3.6836E-02 -9.6836E-02 -1.8064E-01  3.8045E-02
    1319     0.77693 -1.9988E-01  2.9158E-01  1.2554E-01
    1320     1.42997 -2.8922E-01  1.1889E-01  1.5984E-01
    1321     2.00000 -2.3289E-01  2.9862E-01  1.5132E-01
    1322     1.42475 -1.6726E-01  3.7919E-01  1.6831E-01
    1323    -0.66531  8.2744E-03 -9.8843E-02  2.5521E-02
    1324    -0.70431  9.8101E-03 -8.8470E-02  2.9469E-02
    1325    -0.76910  7.0483E-03 -8.9278E-02  2.7450E-02
    1326    -0.68654  1.1516E-02 -9.3645E-02  3.3524E-02
    1327     0.23421 -8.7850E-02  9.8878E-02 -1.3495E-02
    1328     0.48966 -8.6212E-02  1.1555E-01 -3.6370E-02
    1329     0.36951 -9.5666E-02  1.1852E-01 -5.3609E-03
    1330     0.64693 -1.0889E-01  1.4429E-01 -2.4538E-02
    1331     0.62352 -8.6440E-02  1.5871E-01  8.7620E-03
    1332     0.48418 -1.1218E-01  1.6032E-01  3.1809E-02
    1333     0.28610 -8.5039E-02  1.1590E-01  2.7416E-02
    1334    -0.17951  1.9038E-02 -1.2079E-01  1.4120E-01
    1335     0.11851  3.5370E-02 -1.3069E-01  1.6531E-01
    1336 -8.6708E-02  1.1515E-02 -1.2078E-01  1.4558E-01
    1337  6.3000E-02  3.6722E-02 -1.3516E-01  1.5571E-01
    1338     0.56498 -1.5436E-01 -4.8822E-02 -1.5081E-01
    1339     1.59624  2.4584E-02  1.7935E-01 -5.8092E-02
    1340     1.62331  3.4410E-02  1.7613E-01 -4.7049E-02
    1341     1.29830  3.0900E-02  1.6102E-01 -5.2883E-02
    1342     1.58712  1.7454E-02  1.7234E-01 -5.3374E-02
    1343     1.18794 -8.3793E-02 -1.6161E-01  9.3759E-02
    1344     1.56340 -9.4364E-02 -1.6036E-01  1.1115E-01
    1345     1.57842 -1.0817E-01 -1.5968E-01  1.0043E-01
    1346     1.57458 -5.1071E-02  5.3682E-02 -2.0197E-01
    1347     2.00000 -4.0236E-02  5.8593E-02 -2.1903E-01
    1348     1.33277 -3.1543E-02  6.3604E-02 -1.9597E-01
    1349     1.64242 -2.8956E-02  7.3003E-02 -2.1302E-01
    1350     1.37633 -9.9755E-02 -3.2024E-01 -1.1431E-01
    1351     2.00000 -7.5970E-02 -3.5632E-01 -1.5206E-01
    1352     2.00000 -9.4665E-02 -3.1165E-01 -1.4438E-01
    1353     1.27317 -9.9918E-02 -3.2923E-01 -1.2764E-01
    1354     1.29153 -9.0001E-02  1.3702E-01 -9.7593E-02
    1355     1.07890 -8.4279E-02  1.3066E-01 -8.3674E-02
    1356     0.97503 -9.6356E-02  1.3358E-01 -7.6952E-02
    1357     0.29503 -2.1391E-01 -2.9725E-01 -4.6833E-02
    1358     0.53404 -2.2806E-01 -2.8746E-01 -4.1383E-02
    1359     0.74145 -1.9620E-01 -3.0624E-01 -3.9514E-02
    1360     0.30356 -2.0674E-01 -2.8211E-01 -2.4667E-02
    1361     0.34541 -1.4312E-01 -3.1766E-01 -9.9841E-02
    1362     0.62412 -1.3338E-01 -3.0340E-01 -1.1444E-01
    1363     0.85589 -1.5335E-01 -3.0390E-01 -9.3865E-02
    1364     0.33620 -1.5698E-01 -3.1249E-01 -1.0801E-01
    1365     0.25900 -1.3216E-01 -3.1746E-01 -1.1634E-01
    1366     1.53584  2.4008E-01 -1.0582E-02 -9.4732E-03
    1367     1.53028  2.3865E-01  2.2184E-03 -2.1846E-02
    1368     1.52209  2.3181E-01 -6.1331E-03 -3.4976E-03
    1369     1.19189  2.2162E-01 -6.6622E-03 -1.3155E-02
    1370     0.54024 -2.0046E-03  3.6632E-02 -1.5752E-01
    1371     0.64419  8.2074E-03  4.0184E-02 -1.6398E-01
    1372     0.31679  1.3890E-02  3.9711E-02 -1.4907E-01
    1373     0.74939  3.3249E-03  4.3614E-02 -1.6673E-01
    1374     2.00000 -5.9347E-02  1.4204E-01 -1.0190E-01
    1375     2.00000 -5.4800E-02  1.4600E-01 -9.2903E-02
    1376     2.00000 -5.9026E-02  1.4301E-01 -9.7370E-02
    1377     0.94219 -6.5608E-02  1.2445E-01 -7.8423E-02
    1378     1.27637 -6.8854E-02  1.3157E-01 -8.9586E-02
    1379     1.27780 -6.6012E-02  1.3699E-01 -8.4274E-02
    1380     1.27462 -7.5464E-02  1.3886E-01 -8.6011E-02
    1381     0.58003 -1.6557E-01 -2.3096E-02 -1.6579E-01
    1382     0.58705 -1.4898E-01 -1.5571E-02 -1.5931E-01
    1383     0.65807 -1.7541E-01 -2.7511E-02 -1.8109E-01
    1384     0.17638 -1.5633E-01 -4.4849E-02 -1.5800E-01
    1385     0.41918  1.8565E-01 -2.5501E-02 -8.7572E-03
    1386     1.05591  2.0905E-01 -3.0589E-02  1.0074E-03
    1387     0.71352  1.9127E-01 -3.3497E-02  5.1720E-03
    1388     0.73568  1.9248E-01 -2.7655E-02  4.2611E-03
    1389    -0.46499 -6.6420E-02 -2.2493E-01  1.6708E-01
    1390    -0.14622 -6.6031E-02 -2.2039E-01  1.7033E-01
    1391    -0.44752 -7.0265E-02 -2.1079E-01  1.4630E-01
    1392     0.34206 -8.0829E-02 -1.3369E-02 -1.1229E-01
    1393     0.39382 -1.0731E-01 -3.7740E-02 -1.1536E-01
    1394     0.24140 -7.6077E-02 -1.9408E-02 -9.6903E-02
    1395     0.38929 -8.6279E-02 -1.9221E-02 -1.1619E-01
[...]
   58227  0.0000E+00  1.4003E-01 -6.8946E-02 -1.9368E-01
   58228    -1.00000  1.3077E-01 -8.2834E-02 -2.5054E-01
   58229    -1.00000  1.7643E-02  4.1135E-02  2.7906E-01
   58230    -1.00000  1.6894E-02  3.7554E-02  2.7807E-01
   58231  0.0000E+00  2.1205E-02  3.8988E-02  2.7590E-01
   58232    -1.00000  2.8803E-02  2.8361E-02  2.7508E-01
   58233    -1.00000  8.4987E-02  3.4147E-02  2.9306E-01
   58234  0.0000E+00  2.7639E-02  4.8517E-02  2.6740E-01
   58235    -1.00000  8.3368E-02  5.4835E-02  2.6480E-01
   58236    -1.00000  8.4249E-02  5.4246E-02  2.6372E-01
   58237    -1.00000  8.5649E-02  5.4172E-02  2.6356E-01
   58238    -1.00000  8.4682E-02  5.2921E-02  2.6422E-01
   58239    -1.00000  6.1400E-02  5.3368E-02  2.6109E-01
   58240    -1.00000 -1.5480E-01  2.4072E-01  9.3722E-02
   58241    -1.00000  8.2009E-02  5.3887E-02  2.7247E-01
   58242    -1.00000 -1.2961E-01  2.2657E-01  1.5072E-01
   58243  0.0000E+00  8.6494E-02  5.1460E-02  2.6320E-01
   58244  0.0000E+00 -7.7961E-02  2.0765E-01  1.0120E-01
   58245  0.0000E+00 -1.0950E-01  2.2206E-01  3.1831E-02
   58246  0.0000E+00 -9.5698E-02  1.7351E-01  1.5401E-01
   58247  0.0000E+00  8.5362E-02  4.9950E-02  2.6295E-01
   58248    -0.93863  6.2534E-03 -2.4953E-02 -2.4537E-02
   58249    -0.90751  1.2845E-02 -5.9959E-03 -8.9536E-03
   58250  0.0000E+00  2.2286E-01 -8.9449E-02 -4.4228E-02
   58251  0.0000E+00  2.0109E-01 -1.6980E-01 -1.2437E-01
   58252    -1.00000 -2.7143E-01  2.5778E-02 -1.3920E-01
   58253    -1.00000  1.9248E-01 -1.8530E-01 -2.9467E-02
   58254  0.0000E+00  1.9813E-01 -1.5384E-01 -1.2639E-01
   58255  0.0000E+00  1.8445E-01 -1.4758E-01 -1.2671E-01
   58256    -0.77999  1.3970E-02  3.2774E-02  1.4557E-02
   58257    -1.00000  2.1920E-01 -1.5882E-01 -1.4852E-01
   58258    -1.00000 -2.7924E-01 -9.8599E-02 -1.1041E-01
   58259  0.0000E+00 -2.2148E-01  7.1129E-02 -1.2376E-01
   58260    -0.17094 -1.3437E-01 -1.0181E-01 -1.9639E-02
   58261  0.0000E+00 -1.3966E-01 -1.1573E-01 -1.6791E-02
   58262  0.0000E+00 -1.5361E-01 -1.0530E-01 -2.7802E-02
   58263  0.0000E+00 -2.1746E-01 -6.5763E-02 -8.9598E-02
   58264    -0.76880 -3.0007E-02 -6.3410E-02  1.4014E-02
   58265    -0.99417 -6.8931E-04 -1.7980E-03  3.2840E-04
   58266    -0.99608 -2.1601E-04 -1.0449E-03  7.1289E-05
   58267    -0.58060 -5.5425E-02 -1.0090E-01  4.4287E-02
   58268    -0.40518 -5.7578E-02 -1.8504E-01  6.6783E-02
   58269    -0.98966 -5.5857E-04 -3.9826E-03  2.8758E-03
   58270    -0.63861 -4.1951E-02 -7.9708E-02  3.4676E-02
   58271    -0.76200 -3.1042E-02 -5.9250E-02  1.7535E-02
   58272    -0.74415 -3.2434E-02 -6.0231E-02  2.5101E-02
   58273    -0.38082  1.1339E-01  2.4098E-02 -1.7698E-01
   58274  0.0000E+00  7.8572E-02  5.3862E-02  2.6435E-01
   58275    -0.39380 -2.8009E-02 -4.2416E-02 -2.3746E-02
   58276  0.0000E+00 -2.3565E-01 -1.4022E-02 -1.0523E-01
   58277  0.0000E+00  8.5601E-02  5.1682E-02  2.6352E-01
   58278  0.0000E+00  8.2496E-02  6.0331E-02  2.6471E-01
   58279    -1.00000 -1.9815E-01 -1.7152E-01 -8.3289E-03
   58280    -1.00000  7.9561E-02  5.2641E-02  2.6681E-01
   58281    -1.00000  8.1577E-02  5.3270E-02  2.6600E-01
   58282    -1.00000  2.1524E-02  3.3640E-02  2.7531E-01
   58283  0.0000E+00  1.0662E-01  9.1365E-03  2.4153E-01
   58284    -1.00000 -2.1158E-01  1.4796E-01 -1.3707E-01
   58285  0.0000E+00 -1.1707E-01  2.2655E-01 -8.9663E-02
   58286  0.0000E+00  2.8755E-02  2.7647E-02  2.7769E-01
   58287    -1.00000 -1.9785E-01  1.7698E-01 -1.2761E-01
   58288    -0.67352  1.7895E-02  3.2338E-02  2.8142E-01
   58289    -0.99083 -1.6597E-03 -2.7065E-03  3.1512E-03
   58290    -0.98073 -2.8423E-03 -5.5722E-03  6.8249E-03
   58291    -0.71746 -1.2224E-02 -2.5791E-02 -2.1677E-02
   58292    -0.70802 -1.0135E-02 -1.2628E-02 -2.2667E-02
   58293    -0.68904 -1.4366E-02 -1.2874E-02 -2.2800E-02
   58294  0.0000E+00 -1.3965E-01  2.1865E-01  8.5595E-02
   58295    -1.00000  2.2164E-01 -1.5431E-01 -1.5637E-01
   58296    -1.00000 -3.4709E-03  7.8675E-02  3.0474E-01
   58297    -0.98745 -2.0041E-03 -3.6331E-03  3.6429E-03
   58298    -1.00000  1.9813E-02  4.4166E-02  2.8408E-01
   58299    -1.00000  1.6224E-02  3.9506E-02  2.8370E-01
   58300    -1.00000 -1.5598E-01 -2.0440E-01 -5.2169E-02
   58301  0.0000E+00  2.5256E-02  6.4818E-02  2.4517E-01
   58302  0.0000E+00 -2.2637E-01  3.4068E-02 -1.1492E-01
   58303  0.0000E+00 -2.2567E-01  4.0774E-02 -1.1357E-01
   58304  0.0000E+00 -2.1880E-01  7.5045E-02 -1.2940E-01
   58305  0.0000E+00 -2.1703E-01  8.5040E-02 -1.2701E-01
   58306    -1.00000 -6.5071E-02  2.7585E-01 -5.9391E-02
   58307  0.0000E+00  1.4441E-01 -1.0375E-01 -2.6534E-01
   58308  0.0000E+00 -2.1498E-01  6.3953E-02 -1.4333E-01
   58309  0.0000E+00  7.8142E-02  5.3687E-02  2.5718E-01
   58310  0.0000E+00 -7.1067E-02  2.4154E-01 -4.7421E-02
   58311    -1.00000  4.9946E-03 -9.6668E-03  1.0085E-03
   58312    -0.96895 -4.0744E-03 -8.9019E-03  9.7065E-03
   58313    -0.98031 -2.2313E-03 -5.9705E-03  5.0979E-03
   58314  0.0000E+00 -1.3080E-01 -1.1615E-01 -1.2971E-02
   58315  0.0000E+00 -1.2847E-01 -1.1573E-01  1.3643E-03
   58316  0.0000E+00 -1.6135E-01  1.8441E-01 -1.0890E-01
   58317 -6.5300E-02 -1.0433E-01 -1.2068E-01  1.0597E-02
   58318  0.0000E+00 -1.0098E-01 -1.2732E-01  1.3143E-02
   58319    -0.99487 -4.1544E-04 -1.4700E-03  1.3744E-04
   58320  0.0000E+00  8.4953E-02  6.2705E-02  2.5182E-01
   58321  0.0000E+00 -1.6636E-01 -1.4557E-01 -9.3566E-02
   58322    -0.69785 -3.6881E-02 -6.5642E-02  2.6723E-02
   58323  0.0000E+00  8.3934E-02  5.8062E-02  2.6366E-01
   58324  0.0000E+00 -2.0296E-01 -8.7309E-02 -8.5288E-02
   58325    -0.68893 -2.2509E-02 -2.9537E-02 -2.3241E-02
   58326    -0.73062 -2.1362E-02 -3.4358E-02 -2.3876E-02
   58327  0.0000E+00 -1.9292E-01  1.4725E-01 -1.2726E-01
   58328    -1.00000 -1.8182E-01 -1.9750E-01 -8.0455E-02
   58329  0.0000E+00 -1.5356E-01  1.9956E-01 -1.0663E-01
   58330    -0.78690  1.2119E-02 -6.6576E-03 -1.1390E-02
   58331    -0.76775  1.4374E-02  1.9292E-04 -1.6479E-02
   58332    -0.77221  9.8140E-03 -5.2526E-03 -1.1662E-02
   58333    -1.00000  1.7116E-03 -1.8149E-03  8.2793E-04
   58334    -1.00000  1.4138E-02  3.4540E-02  2.8225E-01
   58335    -1.00000  8.6559E-02  5.3465E-02  2.6409E-01
   58336  0.0000E+00  1.7555E-01 -1.7802E-02  1.9288E-01
   58337  0.0000E+00 -1.9782E-01  1.5225E-01 -1.1242E-01
   58338    -1.00000 -6.8937E-02  2.7175E-01 -6.1238E-02
   58339    -1.00000 -1.7315E-01  2.1154E-01 -1.1860E-01
   58340  0.0000E+00  9.3892E-02  6.4527E-02  2.5661E-01
   58341  0.0000E+00  2.8542E-02  2.8366E-02  2.7628E-01
   58342  0.0000E+00 -1.2938E-01  2.1098E-01 -9.0875E-02
   58343    -1.00000 -9.4932E-02  2.6044E-01 -8.0854E-02
   58344    -1.00000  2.8425E-02 -7.7925E-02  8.6709E-04
   58345    -1.00000  1.8896E-01 -1.4956E-01 -1.2098E-01
   58346    -1.00000  8.4232E-02  4.9174E-02  2.6278E-01
   58347    -1.00000 -7.0587E-02  2.7653E-01 -7.3966E-02
   58348    -1.00000  9.0635E-02  6.7230E-02  2.5759E-01
   58349    -1.00000 -1.3237E-01  2.7885E-01  1.6013E-02
   58350  0.0000E+00 -1.0759E-01  2.3682E-01 -8.4552E-02
   58351  0.0000E+00 -1.4776E-01  2.0786E-01 -1.0486E-01
   58352  0.0000E+00 -8.3787E-02  2.5501E-01 -7.2327E-02
   58353    -0.98979 -3.0246E-04 -9.0796E-03 -3.3331E-03
   58354    -1.00000 -9.1255E-02  2.6231E-01 -8.0000E-02
   58355    -1.00000  2.0702E-01 -1.6796E-01 -1.3353E-01
   58356    -1.00000  3.8072E-02  3.1935E-02  2.7287E-01
   58357  0.0000E+00  4.8402E-02  1.0523E-01  2.2390E-01
   58358    -1.00000  8.5594E-02  5.1731E-02  2.6493E-01
   58359    -0.21255 -1.2891E-01 -9.5573E-02 -2.1157E-02
   58360    -1.00000  8.5356E-02  5.2200E-02  2.6470E-01
   58361  0.0000E+00 -7.1893E-02  2.6173E-01 -6.9333E-02
   58362  0.0000E+00 -1.4609E-01  2.2164E-01  8.1033E-02
   58363  0.0000E+00  7.0532E-02  8.1907E-02  2.4093E-01
   58364    -1.00000  8.3256E-02  5.3934E-02  2.6394E-01
   58365  0.0000E+00  7.7098E-02  4.8877E-02  2.6378E-01
   58366  0.0000E+00  8.0583E-02  4.6119E-02  2.6379E-01
   58367  0.0000E+00  9.0696E-02  7.7448E-02  2.5318E-01
   58368  0.0000E+00 -2.0758E-01  7.9458E-02 -1.4729E-01
   58369  0.0000E+00  6.3947E-02  6.1449E-02  2.6417E-01
   58370  0.0000E+00  2.1480E-01 -1.6614E-01 -1.3389E-01
   58371  0.0000E+00  2.0908E-01 -1.6618E-01 -1.2852E-01
   58372    -0.99572  8.6072E-05 -1.0351E-04 -8.5254E-05
   58373    -1.00000  2.1273E-01 -1.5824E-01 -1.3209E-01
   58374    -0.48429  1.6571E-01  1.2474E-01 -1.6346E-01
   58375  0.0000E+00  2.6287E-01  4.2578E-02  1.1211E-02
   58376  0.0000E+00  2.4000E-01 -1.4397E-01 -1.7375E-01
   58377  0.0000E+00  2.1928E-01 -1.6842E-01 -1.4494E-01
   58378    -1.00000  2.1896E-01 -1.6117E-01 -1.3642E-01
   58379  0.0000E+00 -2.3374E-02  2.6360E-01  1.0146E-03
   58380  0.0000E+00 -2.5684E-02  2.6918E-01 -8.6669E-03
   58381    -1.00000 -8.6708E-02  2.5842E-01 -7.5312E-02
   58382  0.0000E+00 -2.0972E-01 -7.3894E-02 -7.8821E-02
   58383  0.0000E+00 -2.0974E-01 -7.5154E-02 -9.9099E-02
   58384  0.0000E+00  2.4302E-01 -1.0813E-01  8.2683E-02
   58385  0.0000E+00 -8.1201E-02  2.6070E-01 -6.5679E-02
   58386  0.0000E+00 -1.8927E-01 -4.7036E-02 -5.5378E-02
   58387    -0.30791 -1.9831E-01  1.1661E-01 -1.5205E-01
   58388    -1.00000 -2.6911E-01 -6.5623E-02 -1.4574E-01
   58389    -1.00000 -2.0421E-01  1.5632E-01 -1.4946E-01
   58390    -1.00000  3.8970E-02  3.4540E-02  2.7303E-01
   58391    -0.99502 -4.5838E-04 -1.0467E-03  1.3764E-04
   58392  0.0000E+00 -8.7315E-02  2.5109E-01 -7.5045E-02
   58393    -0.47333 -1.4664E-02 -4.4177E-02 -2.7432E-02
   58394    -1.00000 -7.3637E-02  2.6524E-01 -6.7909E-02
   58395  0.0000E+00  2.5981E-01 -7.4756E-02  6.7322E-03
   58396  0.0000E+00  2.8812E-01  7.0865E-02  8.6701E-03
   58397    -1.00000  3.4752E-02  3.3292E-02  2.7495E-01
   58398    -1.00000  2.1885E-01 -1.6200E-01 -1.3834E-01
   58399    -1.00000 -2.6471E-02  3.0718E-01  4.9851E-02
   58400    -1.00000  6.1645E-02  1.3653E-01  2.7777E-01
   58401    -1.00000  2.8568E-01  1.1965E-02  1.0604E-01
   58402    -1.00000  7.8409E-02  4.7140E-02  2.6505E-01
   58403    -1.00000  1.7520E-01 -7.3402E-02 -2.3886E-01
   58404    -1.00000  5.6848E-03 -5.3768E-03  1.2304E-03
   58405    -1.00000  8.6220E-02  4.9871E-02  2.6194E-01
   58406  0.0000E+00 -8.6923E-02  2.5447E-01 -7.1211E-02
   58407  0.0000E+00  4.2910E-02  8.1882E-02  2.5379E-01
   58408    -1.00000 -1.0797E-03  2.6612E-01  1.8187E-01
   58409  0.0000E+00 -8.0215E-02  2.5470E-01 -7.1687E-02
   58410  0.0000E+00 -2.3386E-01  1.0432E-02 -1.1254E-01
   58411  0.0000E+00  2.5217E-01 -1.3513E-01 -1.5409E-01
   58412  0.0000E+00  5.4579E-02  3.2721E-02  2.8009E-01
   58413  0.0000E+00 -1.1268E-01  2.2931E-01 -8.9498E-02
   58414    -1.00000 -6.6122E-02  2.7039E-01 -7.1151E-02
   58415    -1.00000  2.0939E-01 -1.7142E-01 -1.3673E-01
   58416  0.0000E+00  2.9787E-01 -4.3156E-03 -2.3656E-01
   58417  0.0000E+00 -1.1766E-01  2.1954E-01  3.6900E-02
   58418    -1.00000  1.2868E-02 -2.0583E-02  2.7379E-03
   58419  0.0000E+00 -1.5360E-01  1.9826E-01 -1.0240E-01
   58420  0.0000E+00 -1.5182E-01 -8.2627E-02 -2.6766E-02
   58421  0.0000E+00 -1.6404E-01 -6.8835E-02 -5.2871E-02
   58422    -1.00000  2.2064E-01 -9.8235E-02 -1.9079E-01
   58423  0.0000E+00  2.9697E-02  2.0549E-02  2.5837E-01
   58424  0.0000E+00  4.1872E-02  7.0669E-02  2.5022E-01
   58425    -1.00000 -2.7173E-01 -7.7084E-02 -1.1011E-01
   58426    -1.00000  8.5982E-02  5.1036E-02  2.6559E-01
   58427  0.0000E+00 -2.3594E-01  4.9641E-02 -1.1189E-01
   58428  0.0000E+00 -1.5379E-01 -2.0340E-01 -5.9051E-02
   58429    -0.99475 -4.5199E-04 -8.3335E-04  1.4403E-04
   58430  0.0000E+00 -1.7707E-01 -1.2006E-01 -9.1329E-02
   58431  0.0000E+00 -1.8353E-01 -1.0919E-01 -1.0740E-01
   58432  0.0000E+00 -1.7041E-01  1.7598E-01 -1.1320E-01
   58433  0.0000E+00 -1.1367E-01  2.1734E-01 -7.8129E-02
   58434  0.0000E+00 -1.0681E-01  2.3492E-01 -8.5816E-02
   58435    -1.00000  5.5537E-03 -3.5746E-03  3.8719E-03
   58436    -0.19577 -3.4999E-02 -1.5330E-01  5.3713E-02
   58437    -0.47710 -2.6733E-03 -1.1322E-01  5.3899E-03
   58438    -1.00000 -2.6536E-01  5.5278E-02 -1.2399E-01
   58439  0.0000E+00  9.8678E-02 -7.9457E-02 -2.3280E-01
   58440  0.0000E+00 -1.4913E-01 -2.1745E-01 -4.6214E-02
   58441  0.0000E+00  2.0368E-01 -2.1609E-01 -1.0049E-01
   58442    -1.00000 -1.8912E-01  1.9283E-01 -1.1338E-01
   58443    -0.46799  1.9050E-05  1.0482E-03 -6.3032E-02
   58444  0.0000E+00  1.7704E-01 -2.1969E-01 -1.6385E-01
   58445    -1.00000  6.3074E-02  5.2046E-02  2.5950E-01
   58446  0.0000E+00  1.2598E-01 -7.2543E-02 -2.6339E-01
   58447    -0.52054 -1.5622E-02 -1.8713E-02 -8.6326E-03
   58448  0.0000E+00  6.9320E-02  6.2690E-02  2.7355E-01
   58449  0.0000E+00  5.8329E-02  3.1534E-03  2.5478E-01
   58450    -1.00000 -1.3254E-01  2.5117E-01 -8.9620E-02
   58451    -1.00000  7.6310E-02  4.8273E-02  2.6802E-01
   58452    -0.92444  5.8773E-03 -4.4859E-03 -5.5072E-03
   58453  0.0000E+00  3.2131E-02  2.9941E-02  2.7969E-01
   58454  0.0000E+00 -1.2525E-01  2.0115E-01  8.2042E-02
   58455  0.0000E+00 -2.2535E-01 -1.3013E-01 -7.4569E-02
   58456    -1.00000 -1.3500E-01  2.8488E-01 -4.4381E-03
   58457  0.0000E+00  1.6000E-01 -1.2534E-01 -1.4145E-01
   58458  0.0000E+00  2.0422E-01 -1.6689E-01 -1.2497E-01
   58459  0.0000E+00  1.9705E-01 -1.6840E-01 -1.2532E-01
   58460    -1.00000 -1.8689E-01  1.9914E-01 -1.1426E-01
   58461    -1.00000  8.5424E-02  5.6031E-02  2.6270E-01
   58462    -0.94904  2.2896E-02 -1.9081E-03  1.1315E-02
   58463    -0.97109 -4.2477E-03 -9.9529E-03  9.9651E-03
   58464    -0.66114 -1.7912E-02 -1.4624E-02 -2.2251E-02
   58465  0.0000E+00 -2.3036E-01  4.0278E-02 -1.1325E-01
   58466    -1.00000 -2.7031E-01 -5.7324E-02 -1.1181E-01
   58467    -1.00000  7.9128E-02  4.9017E-02  2.6699E-01
   58468    -1.00000  8.0943E-02  4.9945E-02  2.6631E-01
   58469    -1.00000  2.3034E-02  3.8462E-02  2.8848E-01
   58470  0.0000E+00 -1.5123E-01  2.2041E-01  7.8778E-02
   58471    -1.00000  3.6203E-02  3.6011E-02  2.6962E-01
   58472  0.0000E+00  7.3816E-02  6.4572E-02  2.7157E-01
   58473    -1.00000 -2.5856E-01  6.9003E-02 -1.3010E-01
   58474  0.0000E+00 -1.7761E-01  1.6476E-01 -1.1207E-01
   58475  0.0000E+00 -7.3254E-02  8.2061E-02  2.2121E-01
   58476    -1.00000  8.3378E-02  5.7415E-02  2.6301E-01
   58477  0.0000E+00  7.6813E-02  6.6005E-02  2.6733E-01
   58478    -0.92268  6.5175E-03 -7.2383E-03 -1.2891E-02
   58479    -1.00000  7.8256E-02  5.0082E-02  2.6708E-01
   58480  0.0000E+00 -2.3044E-01  2.0516E-02 -1.1085E-01
   58481    -0.86984  6.4061E-02 -8.5852E-03  2.4957E-02
   58482  0.0000E+00  3.6355E-02  2.5976E-02  2.5443E-01
   58483    -1.00000  8.4877E-02  5.4520E-02  2.7137E-01
   58484  0.0000E+00  7.8033E-03 -2.0643E-01  4.5936E-02
   58485    -0.92439  6.1708E-03 -1.0490E-02 -1.0706E-02
   58486  0.0000E+00 -3.8542E-02 -1.8966E-01  5.2088E-02
   58487    -1.00000 -1.9116E-01  1.8943E-01 -1.1579E-01
   58488    -1.00000  2.0971E-01 -1.6860E-01 -1.3809E-01
   58489    -1.00000 -2.5553E-01 -1.2956E-01 -8.6104E-02
   58490  0.0000E+00 -2.2292E-01  5.6201E-02 -1.2119E-01
   58491  0.0000E+00 -2.2513E-01 -7.5689E-02 -8.5987E-02
   58492    -0.37312 -7.7959E-03 -1.5222E-01  2.9803E-02
   58493    -0.17745 -2.6346E-02 -1.9944E-01  5.7073E-02
   58494    -1.00000  7.7188E-03 -2.0214E-02 -7.5390E-04
   58495    -0.98031 -1.4741E-03 -4.8923E-03  6.3530E-03
   58496    -0.16297 -5.6912E-02 -1.6025E-01  6.9119E-02
   58497    -1.00000 -1.0815E-01  2.5891E-01 -8.6788E-02
   58498  0.0000E+00 -1.4552E-01  2.1659E-01  7.3886E-02
   58499    -1.00000  8.2357E-02  5.4719E-02  2.6574E-01
   58500  0.0000E+00 -1.8332E-01  1.6298E-01 -1.1292E-01
   58501    -0.42865  3.3772E-02  1.2527E-02 -1.2861E-01
   58502  0.0000E+00  1.6452E-01  6.0052E-02  2.2858E-01
   58503  0.0000E+00  9.4853E-02  1.4371E-02  2.4532E-01
   58504    -1.00000  1.1865E-01 -4.0152E-03  2.7890E-01
   58505  0.0000E+00 -1.3566E-01  2.1699E-01  5.4742E-02
   58506  0.0000E+00 -1.5672E-01  2.1393E-01  6.9882E-02
   58507  0.0000E+00  2.0973E-01 -1.6523E-01 -1.3851E-01
   58508    -1.00000 -1.5499E-01  2.6047E-01  5.9907E-02
   58509    -0.69216  1.1826E-02  3.9776E-02  4.8612E-02
   58510  0.0000E+00 -2.1009E-01  1.3708E-01 -1.1277E-01
   58511  0.0000E+00  8.1471E-02  5.5376E-02  2.5620E-01
   58512    -1.00000 -2.5788E-01 -8.9111E-02 -1.2408E-01
   58513  0.0000E+00 -1.1244E-01  2.0313E-01  1.1365E-01
   58514  0.0000E+00 -1.0228E-01  2.1652E-01 -7.1866E-02
   58515    -1.00000  5.5169E-02  4.8786E-02  2.6214E-01
   58516    -1.00000  5.0460E-02  4.5079E-02  2.6557E-01
   58517  0.0000E+00 -1.9527E-01  1.5789E-01 -1.0976E-01
   58518  0.0000E+00 -1.7232E-01 -1.6985E-01 -6.5901E-02
   58519    -0.61664 -2.6058E-02 -2.1339E-01 -1.1237E-01
   58520  0.0000E+00  1.7430E-02 -2.8904E-01  5.6082E-02
   58521    -0.41976 -3.5038E-02 -1.0757E-01 -2.4043E-02
   58522  0.0000E+00 -9.1504E-02 -1.4365E-01  1.9034E-02
   58523  0.0000E+00  1.1801E-03 -1.6271E-01  5.1224E-02
   58524  0.0000E+00  8.1828E-02  5.4124E-02  2.5732E-01
   58525    -1.00000  8.9817E-02  5.5227E-02  2.6623E-01
   58526  0.0000E+00 -1.6923E-01  1.8223E-01 -1.0733E-01
   58527    -0.39950  2.1204E-01 -4.5676E-02  1.4905E-01
   58528  0.0000E+00  2.4250E-01 -1.6705E-01  1.6103E-01
   58529    -0.49020  9.2873E-03 -1.1899E-01 -1.8926E-02
   58530    -1.00000  4.9876E-02  4.3301E-02  2.6371E-01
   58531  0.0000E+00  1.3163E-01  5.6945E-03  2.1193E-01
   58532  0.0000E+00 -9.5905E-02  2.2966E-01 -7.7500E-02
   58533    -0.29136 -2.8159E-03 -1.5885E-01  6.0486E-02
   58534  0.0000E+00 -1.0941E-01  2.2217E-01  2.3197E-02
   58535  0.0000E+00 -9.1816E-04 -1.9713E-01  7.8225E-02
   58536    -0.60391  1.5943E-02 -1.9749E-01 -1.1263E-01
   58537    -1.00000  1.8154E-01 -1.8513E-01 -6.0260E-02
   58538  0.0000E+00  2.6281E-01 -5.8479E-02  1.1755E-01
   58539    -0.91124  4.8794E-03 -7.3194E-03 -6.1559E-03
   58540  0.0000E+00 -7.0715E-02  2.4494E-01 -3.8667E-02
   58541  0.0000E+00 -1.6245E-01 -1.5147E-01 -8.1134E-02
   58542  0.0000E+00  1.1545E-01  5.1956E-03  2.3149E-01
   58543  0.0000E+00 -1.7742E-01  1.7105E-01 -1.1071E-01
   58544    -0.77750  2.3071E-02  1.6372E-02  2.8007E-02
   58545    -1.00000 -2.5432E-01  4.9612E-02 -1.5702E-01
   58546  0.0000E+00 -2.2467E-01  7.7631E-02 -1.1813E-01
   58547  0.0000E+00 -2.2817E-01 -5.2891E-02 -1.2343E-01
   58548    -0.37889 -3.8321E-02  1.6081E-01  2.1174E-01
   58549  0.0000E+00 -1.6115E-01  1.6187E-01 -1.3377E-01
   58550  0.0000E+00 -1.1561E-01  1.9681E-01 -1.3039E-01
   58551  0.0000E+00  1.0324E-01  2.2436E-01  8.4561E-02
   58552  0.0000E+00  4.0732E-02  2.7016E-01 -7.2499E-02
   58553  0.0000E+00  1.3336E-01  2.3320E-01 -5.1240E-02
   58554  0.0000E+00 -8.8120E-02  2.3851E-01 -1.0372E-01
   58555  0.0000E+00  2.1125E-01  7.7645E-02 -5.5133E-02

*TEMPERATURE_PART       npart=         3
    part temperature
       1  0.0000E+00
       2  0.0000E+00
       3  0.0000E+00

 WARNING: Surfaces with temperature boundary conditions are not included
          in the heat transfer data below. Therefore, an overall energy
          balance may not sum to 0.

 The PART is the frame of reference for boundary condition segment
 set heat transfer data. Positive heat flow is into the part and negative
 heat flow is out of the part.

 energy == energy over this time step of length dt=  1.000000E+00

*ENERGY_BOUNDARY         nfbc=         0     ncbc=         0     nrbc=         0
   bc type     bc id   [energy/time]        [energy]       T_average
                         -----------     -----------
          energy sum      0.0000E+00      0.0000E+00


*ENERGY_PART            npart=         3
    part #  Qgen_chg[energy]  IE_chg[energy]
         1      0.0000E+00      0.0000E+00
         2      0.0000E+00      0.0000E+00
         3      0.0000E+00      0.0000E+00
               -----------     -----------
                0.0000E+00      0.0000E+00

 number of solution iterations  =    1

 QA temperature norm, Tmin, Tmax=   1.940417E+02  -1.000000E+00   2.000000E+00
