*KEYWORD
*MAT_NULL
$#     mid        ro        pc        mu     terod     cerod        ym        pr
         4     0.001                                                            
*SECTION_SHELL
$#   secid    elform      shrf       nip     propt   qr/irid     icomp     setyp
         2         4    0.8333         3       1.0         0         0         1
$#      t1        t2        t3        t4      nloc     marea      idof    edgset
       1.0       0.0       0.0       0.0       0.0       0.0       0.0         0
*PART
$#                                                             heading
mitral-valve                                                          
$#     pid     secid       mid     eosid      hgid      grav    adpopt      tmid
         4         2         4                                                  
*CONSTRAINED_INTERPOLATION
$#    icid      dnid      ddof      cidd      ityp     idnsw       fgm
         2     42081       123                   1         0         0
$#    inid      idof    twghtx    twghty    twghtz    rwghtx    rwghty    rwghtz
         1       123       1.0       1.0       1.0       1.0       1.0       1.0
*PART
$#                                                             heading
aortic-valve                                                          
$#     pid     secid       mid     eosid      hgid      grav    adpopt      tmid
         5         2         4                                                  
*CONSTRAINED_INTERPOLATION
$#    icid      dnid      ddof      cidd      ityp     idnsw       fgm
         3     42082       123                   1         0         0
$#    inid      idof    twghtx    twghty    twghtz    rwghtx    rwghty    rwghtz
         2       123       1.0       1.0       1.0       1.0       1.0       1.0
*PART
$#                                                             heading
tricuspid-valve                                                       
$#     pid     secid       mid     eosid      hgid      grav    adpopt      tmid
         6         2         4                                                  
*CONSTRAINED_INTERPOLATION
$#    icid      dnid      ddof      cidd      ityp     idnsw       fgm
         4     42083       123                   1         0         0
$#    inid      idof    twghtx    twghty    twghtz    rwghtx    rwghty    rwghtz
         3       123       1.0       1.0       1.0       1.0       1.0       1.0
*PART
$#                                                             heading
pulmonary-valve                                                       
$#     pid     secid       mid     eosid      hgid      grav    adpopt      tmid
         7         2         4                                                  
*CONSTRAINED_INTERPOLATION
$#    icid      dnid      ddof      cidd      ityp     idnsw       fgm
         5     42084       123                   1         0         0
$#    inid      idof    twghtx    twghty    twghtz    rwghtx    rwghty    rwghtz
         4       123       1.0       1.0       1.0       1.0       1.0       1.0
*ELEMENT_SHELL
$#   eid     pid      n1      n2      n3      n4      n5      n6      n7      n8
       1       4   23442    8944   42081                                        
       2       4   26972   26965   42081                                        
       3       4   26485   26650   42081                                        
       4       4   24236   24164   42081                                        
       5       4   26953   26888   42081                                        
       6       4   19313   19314   42081                                        
       7       4   26916   26889   42081                                        
       8       4   24201   26930   42081                                        
       9       4   13707   24521   42081                                        
      10       4   22158    1699   42081                                        
      11       4   21998   21515   42081                                        
      12       4   22050   19611   42081                                        
      13       4   20934   26601   42081                                        
      14       4   19296   13273   42081                                        
      15       4   19668    1198   42081                                        
      16       4   23930   24117   42081                                        
      17       4   19740   20842   42081                                        
      18       4   16670   21575   42081                                        
      19       4   26999   26954   42081                                        
      20       4   26464   26972   42081                                        
$ ... 52 like lines cut
*ELEMENT_SHELL
$#   eid     pid      n1      n2      n3      n4      n5      n6      n7      n8
      73       5   26616   26004   42082                                        
      74       5   12972   18938   42082                                        
      75       5   26552   24802   42082                                        
      76       5   14511   24629   42082                                        
      77       5   25148   25147   42082                                        
      78       5   15123   15122   42082                                        
      79       5   25995   24014   42082                                        
      80       5   13581   20105   42082                                        
      81       5   25448   13581   42082                                        
      82       5   20105   12972   42082                                        
      83       5   24802   25398   42082                                        
      84       5   24629   25995   42082                                        
      85       5   24014   24508   42082                                        
      86       5   23481   15123   42082                                        
      87       5   18938   14511   42082                                        
      88       5   24651   26552   42082                                        
      89       5   25147   25951   42082                                        
      90       5   15122   26049   42082                                        
      91       5   25398   25148   42082                                        
      92       5   24102   23988   42082                                        
$ ... 33 like lines cut
*ELEMENT_SHELL
$#   eid     pid      n1      n2      n3      n4      n5      n6      n7      n8
     126       6   39980   38933   42083                                        
     127       6   39923   39980   42083                                        
     128       6   30130   36288   42083                                        
     129       6   36261   35100   42083                                        
     130       6   36288   36261   42083                                        
     131       6   34865   30326   42083                                        
     132       6   30994   34865   42083                                        
     133       6   35100   35102   42083                                        
     134       6   31152   31151   42083                                        
     135       6   35343   34836   42083                                        
     136       6   36392   36050   42083                                        
     137       6   35037   35455   42083                                        
     138       6   30887   31853   42083                                        
     139       6   38655   36321   42083                                        
     140       6   35252   35128   42083                                        
     141       6   34105   27964   42083                                        
     142       6   31140   35731   42083                                        
     143       6   34652   35381   42083                                        
     144       6   32323   40952   42083                                        
     145       6   35455   32323   42083                                        
$ ... 75 like lines cut
*ELEMENT_SHELL
$#   eid     pid      n1      n2      n3      n4      n5      n6      n7      n8
     221       7   36387   39392   42084                                        
     222       7   30315   36387   42084                                        
     223       7   32448   32332   42084                                        
     224       7   38919   33447   42084                                        
     225       7   39010   28787   42084                                        
     226       7   32380   33458   42084                                        
     227       7   30221   40991   42084                                        
     228       7   38347   35804   42084                                        
     229       7   33167   33166   42084                                        
     230       7   33961   36561   42084                                        
     231       7   40145   39116   42084                                        
     232       7   31481   36257   42084                                        
     233       7   40959   38634   42084                                        
     234       7   31171   31172   42084                                        
     235       7   31510   38031   42084                                        
     236       7   41309   28198   42084                                        
     237       7   34080   41866   42084                                        
     238       7   41833   33904   42084                                        
     239       7   33153   28950   42084                                        
     240       7   30336   39417   42084                                        
$ ... 51 like lines cut
*END