*KEYWORD
*PART
$#                                                             heading
SupportSpring                                                         
$#     pid     secid       mid     eosid      hgid      grav    adpopt      tmid
        22         3        10                                                  
*SECTION_DISCRETE
$#   secid       dro        kd        v0        cl        fd
         3         0       0.0       0.0       0.0       0.0
$#     cdl       tdl
       0.0       0.0
*MAT_SPRING_ELASTIC
$#     mid         k
        10     0.002
$$ spring at right-inferior-pulmonary-vein$$
*DEFINE_SD_ORIENTATION
$#     vid       iop        xt        yt        zt      nid1      nid2
         1         00.81942058-0.4977689 0.0371963                    
*DEFINE_SD_ORIENTATION
$#     vid       iop        xt        yt        zt      nid1      nid2
         2         0-0.5049643-0.8624599-0.0342641                    
         3         0-0.5390334-0.8358598-0.1038337                    
         4         00.430554540.65632051-0.6195694                    
         5         0 0.43925530.74393153-0.5036076                    
         6         0 0.50461990.71721286-0.4805877                    
         7         0-0.3080359-0.5617182-0.7678454                    
         8         0-0.2142588-0.4807619-0.8502712                    
         9         00.04216453-0.0712442-0.9965673                    
        10         00.104221950.08552218-0.9908702                    
        11         00.312215120.46448791-0.8287175                    
        12         00.376750590.56012028-0.7377834                    
        13         0-0.1306886-0.3512394-0.9271199                    
        14         0-0.0437902-0.2150496-0.9756209                    
        15         00.194119380.21322648-0.9575239                    
        16         00.254758660.34830606-0.9020981                    
        17         0-0.3631456-0.6830098-0.6337372                    
        18         00.52367383 0.7658335 -0.373182                    
        19         0-0.4318177-0.7647619-0.4781973                    
        20         0-0.2955911-0.34570220.89057052                    
        21         0-0.3058813-0.46278810.83202392                    
$ ... 21 like lines cut
*ELEMENT_DISCRETE
$#   eid     pid      n1      n2     vid               s      pf          offset
       1      22   44849       0       1  2.229177772399                        
       2      22   43592       0       1 2.6119772265025                        
       3      22   44464       0       1 3.2232555576977                        
       4      22   42027       0       1 2.1874332258535                        
       5      22   42025       0       1 1.9009762900017                        
       6      22   45146       0       1 3.2517813177447                        
       7      22   45047       0       1 3.3614979383193                        
       8      22   41441       0       1 3.9543288218775                        
       9      22   41573       0       1 3.9263529982142                        
      10      22   47893       0       1 3.5776296600413                        
      11      22   47782       0       1  3.502616729748                        
      12      22   43139       0       1 3.8125212768104                        
      13      22   43138       0       1  3.912638736746                        
      14      22   44409       0       1 3.9493126121277                        
      15      22   44493       0       1  3.848726205452                        
      16      22   44006       0       1 3.5072132768373                        
      17      22   43889       0       1 2.3292673185123                        
      18      22   41807       0       1 3.4683520491948                        
      19      22   44616       0       1 3.9356853297593                        
      20      22   44615       0       1 2.7462973690957                        
$ ... 21 like lines cut
*ELEMENT_DISCRETE
$#   eid     pid      n1      n2     vid               s      pf          offset
      42      22   44849       0       2 4.4583555447981                        
      43      22   43592       0       3 5.2239544530049                        
      44      22   44464       0       4 6.4465111153953                        
      45      22   42027       0       5 4.3748664517071                        
      46      22   42025       0       6 3.8019525800033                        
      47      22   45146       0       7 6.5035626354894                        
      48      22   45047       0       8 6.7229958766387                        
      49      22   41441       0       9 7.9086576437549                        
      50      22   41573       0      10 7.8527059964284                        
      51      22   47893       0      11 7.1552593200826                        
      52      22   47782       0      12 7.0052334594961                        
      53      22   43139       0      13 7.6250425536209                        
      54      22   43138       0      14 7.8252774734919                        
      55      22   44409       0      15 7.8986252242553                        
      56      22   44493       0      16  7.697452410904                        
      57      22   44006       0      17 7.0144265536746                        
      58      22   43889       0      18 4.6585346370246                        
      59      22   41807       0      19 6.9367040983897                        
      60      22   44616       0      20 7.8713706595187                        
      61      22   44615       0      21 5.4925947381914                        
$ ... 21 like lines cut
$$ spring at right-superior-pulmonary-vein$$
*DEFINE_SD_ORIENTATION
$#     vid       iop        xt        yt        zt      nid1      nid2
        43         00.754947070.32245883-0.5381421                    
*DEFINE_SD_ORIENTATION
$#     vid       iop        xt        yt        zt      nid1      nid2
        44         0-0.28330760.92806256 0.2417367                    
        45         0-0.08678060.938244880.33491153                    
        46         00.61792284-0.01839440.78602356                    
        47         00.62112707-0.17007110.76503396                    
        48         00.60844988-0.51487590.60389704                    
        49         00.60254174-0.65318680.45857438                    
        50         00.095223240.763005140.63934004                    
        51         00.230728250.683313190.69271028                    
        52         0-0.60102530.58580983-0.5436869                    
        53         0-0.59051880.72599381-0.3524492                    
        54         00.03587866-0.9069787-0.4196456                    
        55         0-0.0880186-0.8220685-0.5625443                    
        56         00.38193217 0.37566730.84439439                    
        57         00.48005268  0.227074  0.847341                    
        58         0-0.48780990.85829371-0.1592904                    
        59         0-0.34036880.93964463 0.0348861                    
        60         0-0.5278768-0.1669551-0.8327497                    
        61         0-0.5958569-0.0034651-0.8030831                    
        62         0-0.1897879-0.7227931-0.6644928                    
        63         0-0.2546669-0.6007648-0.7577773                    
$ ... 11 like lines cut
*ELEMENT_DISCRETE
$#   eid     pid      n1      n2     vid               s      pf          offset
      83      22   44053       0      43 2.2141145768183                        
      84      22   43404       0      43 2.4751338007623                        
      85      22   41435       0      43 2.7981857200717                        
      86      22   41437       0      43 1.8330921886694                        
      87      22   45158       0      43 2.2947007818614                        
      88      22   42960       0      43 2.0451830239069                        
      89      22   42028       0      43  2.540980860934                        
      90      22   43526       0      43 2.5714722197644                        
      91      22   43357       0      43 2.4031394624107                        
      92      22   41766       0      43 2.2183151128393                        
      93      22   44604       0      43 2.1495516132576                        
      94      22   43748       0      43 2.0025971714734                        
      95      22   44774       0      43 2.4534937568234                        
      96      22   43663       0      43 2.9828780065627                        
      97      22   43120       0      43  2.240996030251                        
      98      22   43621       0      43 2.1726189570417                        
      99      22   41350       0      43 3.0565091658862                        
     100      22   42501       0      43 2.8398575306676                        
     101      22   43098       0      43 2.1306764476374                        
     102      22   43427       0      43 2.3625577135083                        
$ ... 11 like lines cut
*ELEMENT_DISCRETE
$#   eid     pid      n1      n2     vid               s      pf          offset
     114      22   44053       0      44 4.4282291536366                        
     115      22   43404       0      45 4.9502676015246                        
     116      22   41435       0      46 5.5963714401434                        
     117      22   41437       0      47 3.6661843773388                        
     118      22   45158       0      48 4.5894015637228                        
     119      22   42960       0      49 4.0903660478137                        
     120      22   42028       0      50 5.0819617218681                        
     121      22   43526       0      51 5.1429444395289                        
     122      22   43357       0      52 4.8062789248214                        
     123      22   41766       0      53 4.4366302256787                        
     124      22   44604       0      54 4.2991032265152                        
     125      22   43748       0      55 4.0051943429468                        
     126      22   44774       0      56 4.9069875136469                        
     127      22   43663       0      57 5.9657560131254                        
     128      22   43120       0      58  4.481992060502                        
     129      22   43621       0      59 4.3452379140834                        
     130      22   41350       0      60 6.1130183317723                        
     131      22   42501       0      61 5.6797150613353                        
     132      22   43098       0      62 4.2613528952748                        
     133      22   43427       0      63 4.7251154270167                        
$ ... 11 like lines cut
$$ spring at superior-vena-cava$$
*DEFINE_SD_ORIENTATION
$#     vid       iop        xt        yt        zt      nid1      nid2
        75         0-0.2500944-0.5390176-0.7269081                    
*DEFINE_SD_ORIENTATION
$#     vid       iop        xt        yt        zt      nid1      nid2
        76         0-0.95008550.182550860.25300735                    
        77         0-0.9587354 0.24865930.13782233                    
        78         00.158951330.76679039-0.6219059                    
        79         00.308885370.68199271-0.6629297                    
        80         00.484809550.59970647-0.6366411                    
        81         00.615909040.51255524-0.5982835                    
        82         0-0.8673709-0.21033550.45102841                    
        83         0-0.9301157-0.07329690.35987824                    
        84         0-0.3345891-0.68862560.64330781                    
        85         0-0.4359414-0.63618730.63656962                    
        86         0-0.40367060.79039592-0.4607866                    
        87         0-0.24851530.82138795-0.5133829                    
        88         0-0.11920090.80515748-0.5809583                    
        89         00.019998290.79021955-0.6124975                    
        90         00.05644221-0.80308410.59318638                    
        91         0 -0.048204-0.78705250.61499977                    
        92         0-0.96028610.071746380.26963523                    
        93         0-0.91098280.404290080.08160724                    
        94         0-0.6003762-0.50463840.62039381                    
        95         0-0.57342120.75635082-0.3148358                    
$ ... 20 like lines cut
*ELEMENT_DISCRETE
$#   eid     pid      n1      n2     vid               s      pf          offset
     145      22   48770       0      75 1.4928728005775                        
     146      22   48769       0      75 1.5673692305916                        
     147      22   49310       0      75 3.8820297119827                        
     148      22   51019       0      75 5.0664869550267                        
     149      22   49943       0      75 5.1904011937267                        
     150      22   50172       0      75 4.0188935276519                        
     151      22   52986       0      75 3.3668401151737                        
     152      22   51277       0      75 3.1164911062157                        
     153      22   52086       0      75 2.5175909901344                        
     154      22   52945       0      75  3.599511526264                        
     155      22   53302       0      75  2.637688633172                        
     156      22   51313       0      75 2.7083120845651                        
     157      22   48986       0      75 3.0461196339977                        
     158      22   48684       0      75 3.2217665111709                        
     159      22   53483       0      75 2.3791774386192                        
     160      22   53436       0      75 3.1208969061399                        
     161      22   51547       0      75 2.2208784075847                        
     162      22   53821       0      75 1.9006279033926                        
     163      22   53215       0      75 3.8274398099211                        
     164      22   52058       0      75 2.6153596912042                        
$ ... 20 like lines cut
*ELEMENT_DISCRETE
$#   eid     pid      n1      n2     vid               s      pf          offset
     185      22   48770       0      76 2.9857456011549                        
     186      22   48769       0      77 3.1347384611832                        
     187      22   49310       0      78 7.7640594239655                        
     188      22   51019       0      79 10.132973910053                        
     189      22   49943       0      80 10.380802387453                        
     190      22   50172       0      81 8.0377870553038                        
     191      22   52986       0      82 6.7336802303474                        
     192      22   51277       0      83 6.2329822124314                        
     193      22   52086       0      84 5.0351819802688                        
     194      22   52945       0      85 7.1990230525279                        
     195      22   53302       0      86 5.2753772663441                        
     196      22   51313       0      87 5.4166241691302                        
     197      22   48986       0      88 6.0922392679953                        
     198      22   48684       0      89 6.4435330223417                        
     199      22   53483       0      90 4.7583548772384                        
     200      22   53436       0      91 6.2417938122798                        
     201      22   51547       0      92 4.4417568151694                        
     202      22   53821       0      93 3.8012558067851                        
     203      22   53215       0      94 7.6548796198422                        
     204      22   52058       0      95 5.2307193824084                        
$ ... 20 like lines cut
*END