*KEYWORD
*MAT_NULL
$#     mid        ro        pc        mu     terod     cerod        ym        pr
         9     0.001                                                            
*SECTION_SHELL
$#   secid    elform      shrf       nip     propt   qr/irid     icomp     setyp
         2         4    0.8333         3       1.0         0         0         1
$#      t1        t2        t3        t4      nloc     marea      idof    edgset
       1.0       0.0       0.0       0.0       0.0       0.0       0.0         0
*PART
$#                                                             heading
mitral-valve                                                          
$#     pid     secid       mid     eosid      hgid      grav    adpopt      tmid
         9         2         9                                                  
*CONSTRAINED_INTERPOLATION
$#    icid      dnid      ddof      cidd      ityp     idnsw       fgm
         2     61096       123                   1         0         0
$#    inid      idof    twghtx    twghty    twghtz    rwghtx    rwghty    rwghtz
         1       123       1.0       1.0       1.0       1.0       1.0       1.0
*PART
$#                                                             heading
aortic-valve                                                          
$#     pid     secid       mid     eosid      hgid      grav    adpopt      tmid
        10         2         9                                                  
*CONSTRAINED_INTERPOLATION
$#    icid      dnid      ddof      cidd      ityp     idnsw       fgm
         3     61097       123                   1         0         0
$#    inid      idof    twghtx    twghty    twghtz    rwghtx    rwghty    rwghtz
         2       123       1.0       1.0       1.0       1.0       1.0       1.0
*PART
$#                                                             heading
tricuspid-valve                                                       
$#     pid     secid       mid     eosid      hgid      grav    adpopt      tmid
        11         2         9                                                  
*CONSTRAINED_INTERPOLATION
$#    icid      dnid      ddof      cidd      ityp     idnsw       fgm
         4     61098       123                   1         0         0
$#    inid      idof    twghtx    twghty    twghtz    rwghtx    rwghty    rwghtz
         3       123       1.0       1.0       1.0       1.0       1.0       1.0
*PART
$#                                                             heading
pulmonary-valve                                                       
$#     pid     secid       mid     eosid      hgid      grav    adpopt      tmid
        12         2         9                                                  
*CONSTRAINED_INTERPOLATION
$#    icid      dnid      ddof      cidd      ityp     idnsw       fgm
         5     61099       123                   1         0         0
$#    inid      idof    twghtx    twghty    twghtz    rwghtx    rwghty    rwghtz
         4       123       1.0       1.0       1.0       1.0       1.0       1.0
*PART
$#                                                             heading
mitral-valve-atrium                                                   
$#     pid     secid       mid     eosid      hgid      grav    adpopt      tmid
        13         2         9                                                  
*CONSTRAINED_INTERPOLATION
$#    icid      dnid      ddof      cidd      ityp     idnsw       fgm
         6     61100       123                   1         0         0
$#    inid      idof    twghtx    twghty    twghtz    rwghtx    rwghty    rwghtz
         5       123       1.0       1.0       1.0       1.0       1.0       1.0
*PART
$#                                                             heading
left-atrium-appendage                                                 
$#     pid     secid       mid     eosid      hgid      grav    adpopt      tmid
        14         2         9                                                  
*CONSTRAINED_INTERPOLATION
$#    icid      dnid      ddof      cidd      ityp     idnsw       fgm
         7     61101       123                   1         0         0
$#    inid      idof    twghtx    twghty    twghtz    rwghtx    rwghty    rwghtz
         6       123       1.0       1.0       1.0       1.0       1.0       1.0
*PART
$#                                                             heading
right-inferior-pulmonary-vein                                         
$#     pid     secid       mid     eosid      hgid      grav    adpopt      tmid
        15         2         9                                                  
*CONSTRAINED_INTERPOLATION
$#    icid      dnid      ddof      cidd      ityp     idnsw       fgm
         8     61102       123                   1         0         0
$#    inid      idof    twghtx    twghty    twghtz    rwghtx    rwghty    rwghtz
         7       123       1.0       1.0       1.0       1.0       1.0       1.0
*PART
$#                                                             heading
left-inferior-pulmonary-vein                                          
$#     pid     secid       mid     eosid      hgid      grav    adpopt      tmid
        16         2         9                                                  
*CONSTRAINED_INTERPOLATION
$#    icid      dnid      ddof      cidd      ityp     idnsw       fgm
         9     61103       123                   1         0         0
$#    inid      idof    twghtx    twghty    twghtz    rwghtx    rwghty    rwghtz
         8       123       1.0       1.0       1.0       1.0       1.0       1.0
*PART
$#                                                             heading
left-superior-pulmonary-vein                                          
$#     pid     secid       mid     eosid      hgid      grav    adpopt      tmid
        17         2         9                                                  
*CONSTRAINED_INTERPOLATION
$#    icid      dnid      ddof      cidd      ityp     idnsw       fgm
        10     61104       123                   1         0         0
$#    inid      idof    twghtx    twghty    twghtz    rwghtx    rwghty    rwghtz
         9       123       1.0       1.0       1.0       1.0       1.0       1.0
*PART
$#                                                             heading
right-superior-pulmonary-vein                                         
$#     pid     secid       mid     eosid      hgid      grav    adpopt      tmid
        18         2         9                                                  
*CONSTRAINED_INTERPOLATION
$#    icid      dnid      ddof      cidd      ityp     idnsw       fgm
        11     61105       123                   1         0         0
$#    inid      idof    twghtx    twghty    twghtz    rwghtx    rwghty    rwghtz
        10       123       1.0       1.0       1.0       1.0       1.0       1.0
*PART
$#                                                             heading
tricuspid-valve-atrium                                                
$#     pid     secid       mid     eosid      hgid      grav    adpopt      tmid
        19         2         9                                                  
*CONSTRAINED_INTERPOLATION
$#    icid      dnid      ddof      cidd      ityp     idnsw       fgm
        12     61106       123                   1         0         0
$#    inid      idof    twghtx    twghty    twghtz    rwghtx    rwghty    rwghtz
        11       123       1.0       1.0       1.0       1.0       1.0       1.0
*PART
$#                                                             heading
superior-vena-cava                                                    
$#     pid     secid       mid     eosid      hgid      grav    adpopt      tmid
        20         2         9                                                  
*CONSTRAINED_INTERPOLATION
$#    icid      dnid      ddof      cidd      ityp     idnsw       fgm
        13     61107       123                   1         0         0
$#    inid      idof    twghtx    twghty    twghtz    rwghtx    rwghty    rwghtz
        12       123       1.0       1.0       1.0       1.0       1.0       1.0
*PART
$#                                                             heading
inferior-vena-cava                                                    
$#     pid     secid       mid     eosid      hgid      grav    adpopt      tmid
        21         2         9                                                  
*CONSTRAINED_INTERPOLATION
$#    icid      dnid      ddof      cidd      ityp     idnsw       fgm
        14     61108       123                   1         0         0
$#    inid      idof    twghtx    twghty    twghtz    rwghtx    rwghty    rwghtz
        13       123       1.0       1.0       1.0       1.0       1.0       1.0
*ELEMENT_SHELL
$#   eid     pid      n1      n2      n3      n4      n5      n6      n7      n8
       1       9   22768   11469   61096                                        
       2       9   12516   20572   61096                                        
       3       9    7042    7044   61096                                        
       4       9   10519    4913   61096                                        
       5       9    8843   21382   61096                                        
       6       9   18057    6798   61096                                        
       7       9   24026   19144   61096                                        
       8       9   20651    6084   61096                                        
       9       9   22872   24139   61096                                        
      10       9    4913    9837   61096                                        
      11       9    7044   11703   61096                                        
      12       9   12515   12516   61096                                        
      13       9    6084    8843   61096                                        
      14       9   25315   20651   61096                                        
      15       9   21382   24026   61096                                        
      16       9   11469   10519   61096                                        
      17       9   24139   20519   61096                                        
      18       9   20519   15781   61096                                        
      19       9    6798   22872   61096                                        
      20       9   19144   12515   61096                                        
$ ... 54 like lines cut
*ELEMENT_SHELL
$#   eid     pid      n1      n2      n3      n4      n5      n6      n7      n8
      75      10    6496    4521   61097                                        
      76      10    4521    1917   61097                                        
      77      10   26012   25479   61097                                        
      78      10    8362   25541   61097                                        
      79      10    5916   20745   61097                                        
      80      10    8143   26129   61097                                        
      81      10   26018   26019   61097                                        
      82      10   25885   22325   61097                                        
      83      10    7709   23363   61097                                        
      84      10   23244   23168   61097                                        
      85      10   19830   17203   61097                                        
      86      10   22953    6118   61097                                        
      87      10   25255    5412   61097                                        
      88      10   26442   25354   61097                                        
      89      10   22331    8226   61097                                        
      90      10    8569   22954   61097                                        
      91      10   23021   18499   61097                                        
      92      10   21921   12081   61097                                        
      93      10   25541    8170   61097                                        
      94      10   17203   25885   61097                                        
$ ... 37 like lines cut
*ELEMENT_SHELL
$#   eid     pid      n1      n2      n3      n4      n5      n6      n7      n8
     132      11   30051   34497   61098                                        
     133      11   36006   30051   61098                                        
     134      11   33357   33355   61098                                        
     135      11   27254   27273   61098                                        
     136      11   35044   32187   61098                                        
     137      11   33174   33119   61098                                        
     138      11   31644   29885   61098                                        
     139      11   35273   38593   61098                                        
     140      11   27692   27690   61098                                        
     141      11   40995   40667   61098                                        
     142      11   37179   37180   61098                                        
     143      11   29023   28575   61098                                        
     144      11   34841   32966   61098                                        
     145      11   41111   38646   61098                                        
     146      11   32634   30588   61098                                        
     147      11   33586   40043   61098                                        
     148      11   37985   37768   61098                                        
     149      11   34181   32633   61098                                        
     150      11   33600   33695   61098                                        
     151      11   36724   37249   61098                                        
$ ... 75 like lines cut
*ELEMENT_SHELL
$#   eid     pid      n1      n2      n3      n4      n5      n6      n7      n8
     227      12   34270   34263   61099                                        
     228      12   33560   34579   61099                                        
     229      12   29846   29842   61099                                        
     230      12   36142   41175   61099                                        
     231      12   34352   27731   61099                                        
     232      12   27731   34270   61099                                        
     233      12   29842   36142   61099                                        
     234      12   41175   34352   61099                                        
     235      12   35038   33560   61099                                        
     236      12   30116   31245   61099                                        
     237      12   31245   30047   61099                                        
     238      12   32304   31935   61099                                        
     239      12   32417   27425   61099                                        
     240      12   27425   27426   61099                                        
     241      12   28450   35179   61099                                        
     242      12   33833   27611   61099                                        
     243      12   27558   30317   61099                                        
     244      12   36285   34422   61099                                        
     245      12   32320   33450   61099                                        
     246      12   34506   34505   61099                                        
$ ... 53 like lines cut
*ELEMENT_SHELL
$#   eid     pid      n1      n2      n3      n4      n5      n6      n7      n8
     300      13   26205   24005   61100                                        
     301      13   24005   25599   61100                                        
     302      13   44763   47446   61100                                        
     303      13   47446   42258   61100                                        
     304      13   47092   44390   61100                                        
     305      13   26428   43929   61100                                        
     306      13   41572   43964   61100                                        
     307      13   21570    3948   61100                                        
     308      13   26427   47079   61100                                        
     309      13   46663   25843   61100                                        
     310      13   42223   43802   61100                                        
     311      13   42897   46772   61100                                        
     312      13   26158   14943   61100                                        
     313      13   41904   44125   61100                                        
     314      13   23170   22522   61100                                        
     315      13   21574   16937   61100                                        
     316      13   43050   44577   61100                                        
     317      13   45612   46372   61100                                        
     318      13   22019   43040   61100                                        
     319      13   44577   26428   61100                                        
$ ... 48 like lines cut
*ELEMENT_SHELL
$#   eid     pid      n1      n2      n3      n4      n5      n6      n7      n8
     368      14   41880   43021   61101                                        
     369      14   41788   41880   61101                                        
     370      14   47016   47739   61101                                        
     371      14   46691   46461   61101                                        
     372      14   44384   43916   61101                                        
     373      14   44620   44267   61101                                        
     374      14   47265   47140   61101                                        
     375      14   44711   45823   61101                                        
     376      14   43021   42161   61101                                        
     377      14   45748   45746   61101                                        
     378      14   44163   45975   61101                                        
     379      14   47739   47870   61101                                        
     380      14   47582   45862   61101                                        
     381      14   44588   43797   61101                                        
     382      14   46028   45633   61101                                        
     383      14   43075   43118   61101                                        
     384      14   41870   43085   61101                                        
     385      14   42480   41659   61101                                        
     386      14   43493   42101   61101                                        
     387      14   43887   44174   61101                                        
$ ... 29 like lines cut
*ELEMENT_SHELL
$#   eid     pid      n1      n2      n3      n4      n5      n6      n7      n8
     417      15   44849   43592   61102                                        
     418      15   44464   42027   61102                                        
     419      15   42027   42025   61102                                        
     420      15   45146   45047   61102                                        
     421      15   41441   41573   61102                                        
     422      15   47893   47782   61102                                        
     423      15   43139   43138   61102                                        
     424      15   44409   44493   61102                                        
     425      15   44006   45146   61102                                        
     426      15   41573   44409   61102                                        
     427      15   44493   47893   61102                                        
     428      15   45047   43139   61102                                        
     429      15   43138   41441   61102                                        
     430      15   47782   44464   61102                                        
     431      15   42025   43889   61102                                        
     432      15   41807   44006   61102                                        
     433      15   44616   44615   61102                                        
     434      15   43313   43316   61102                                        
     435      15   43890   43640   61102                                        
     436      15   44609   44379   61102                                        
$ ... 21 like lines cut
*ELEMENT_SHELL
$#   eid     pid      n1      n2      n3      n4      n5      n6      n7      n8
     458      16   43923   43878   61103                                        
     459      16   43878   43880   61103                                        
     460      16   45566   47259   61103                                        
     461      16   44924   46045   61103                                        
     462      16   46569   45615   61103                                        
     463      16   43880   43830   61103                                        
     464      16   42593   43923   61103                                        
     465      16   46793   46183   61103                                        
     466      16   46759   45544   61103                                        
     467      16   45630   45390   61103                                        
     468      16   42592   42593   61103                                        
     469      16   46045   46759   61103                                        
     470      16   45615   45566   61103                                        
     471      16   46183   46569   61103                                        
     472      16   43830   44924   61103                                        
     473      16   45841   46793   61103                                        
     474      16   45544   43931   61103                                        
     475      16   45390   45841   61103                                        
     476      16   45510   42861   61103                                        
     477      16   45584   45033   61103                                        
$ ... 16 like lines cut
*ELEMENT_SHELL
$#   eid     pid      n1      n2      n3      n4      n5      n6      n7      n8
     494      17   42890   43627   61104                                        
     495      17   44965   42238   61104                                        
     496      17   45859   45904   61104                                        
     497      17   44264   42891   61104                                        
     498      17   43524   44335   61104                                        
     499      17   46656   47431   61104                                        
     500      17   43855   45230   61104                                        
     501      17   45553   45799   61104                                        
     502      17   42891   42890   61104                                        
     503      17   45904   45553   61104                                        
     504      17   44665   43524   61104                                        
     505      17   45799   45599   61104                                        
     506      17   44718   43855   61104                                        
     507      17   46592   45830   61104                                        
     508      17   42736   45859   61104                                        
     509      17   43892   45857   61104                                        
     510      17   43376   44264   61104                                        
     511      17   45230   43892   61104                                        
     512      17   47431   44665   61104                                        
     513      17   42238   44718   61104                                        
$ ... 11 like lines cut
*ELEMENT_SHELL
$#   eid     pid      n1      n2      n3      n4      n5      n6      n7      n8
     525      18   44053   43404   61105                                        
     526      18   41435   41437   61105                                        
     527      18   45158   42960   61105                                        
     528      18   42028   43526   61105                                        
     529      18   43357   41766   61105                                        
     530      18   44604   43748   61105                                        
     531      18   44774   43663   61105                                        
     532      18   43120   43621   61105                                        
     533      18   41350   42501   61105                                        
     534      18   43098   43427   61105                                        
     535      18   42751   43555   61105                                        
     536      18   42502   44114   61105                                        
     537      18   43621   44053   61105                                        
     538      18   41437   43538   61105                                        
     539      18   42960   42691   61105                                        
     540      18   43748   43098   61105                                        
     541      18   43114   43113   61105                                        
     542      18   42501   42502   61105                                        
     543      18   43404   44602   61105                                        
     544      18   43538   45158   61105                                        
$ ... 11 like lines cut
*ELEMENT_SHELL
$#   eid     pid      n1      n2      n3      n4      n5      n6      n7      n8
     556      19   37767   37986   61106                                        
     557      19   52213   50196   61106                                        
     558      19   55805   55995   61106                                        
     559      19   52645   52883   61106                                        
     560      19   56818   31803   61106                                        
     561      19   49714   52213   61106                                        
     562      19   34455   36118   61106                                        
     563      19   40976   40502   61106                                        
     564      19   50489   54659   61106                                        
     565      19   53316   52645   61106                                        
     566      19   49713   49714   61106                                        
     567      19   54659   40976   61106                                        
     568      19   50196   50489   61106                                        
     569      19   55912   55962   61106                                        
     570      19   36118   56818   61106                                        
     571      19   55995   34455   61106                                        
     572      19   40502   51233   61106                                        
     573      19   57233   55805   61106                                        
     574      19   52883   49713   61106                                        
     575      19   35068   55912   61106                                        
$ ... 86 like lines cut
*ELEMENT_SHELL
$#   eid     pid      n1      n2      n3      n4      n5      n6      n7      n8
     662      20   48770   48769   61107                                        
     663      20   49310   51019   61107                                        
     664      20   49943   50172   61107                                        
     665      20   52986   51277   61107                                        
     666      20   52086   52945   61107                                        
     667      20   53302   51313   61107                                        
     668      20   48986   48684   61107                                        
     669      20   53483   53436   61107                                        
     670      20   51547   48770   61107                                        
     671      20   48684   49310   61107                                        
     672      20   48769   53821   61107                                        
     673      20   52945   53215   61107                                        
     674      20   52058   53302   61107                                        
     675      20   51313   48986   61107                                        
     676      20   54922   54396   61107                                        
     677      20   51019   49943   61107                                        
     678      20   53436   52087   61107                                        
     679      20   50172   50311   61107                                        
     680      20   53821   52514   61107                                        
     681      20   52087   52086   61107                                        
$ ... 20 like lines cut
*ELEMENT_SHELL
$#   eid     pid      n1      n2      n3      n4      n5      n6      n7      n8
     702      21   56019   54883   61108                                        
     703      21   55558   55004   61108                                        
     704      21   55967   55402   61108                                        
     705      21   56147   56323   61108                                        
     706      21   55105   53846   61108                                        
     707      21   55551   55558   61108                                        
     708      21   56323   55967   61108                                        
     709      21   53846   55551   61108                                        
     710      21   55852   55105   61108                                        
     711      21   55521   55092   61108                                        
     712      21   55292   55993   61108                                        
     713      21   55859   51148   61108                                        
     714      21   55154   56921   61108                                        
     715      21   55402   55292   61108                                        
     716      21   55148   53804   61108                                        
     717      21   55993   55521   61108                                        
     718      21   55188   55865   61108                                        
     719      21   57040   55197   61108                                        
     720      21   56991   57040   61108                                        
     721      21   55961   55852   61108                                        
$ ... 15 like lines cut
*END