*KEYWORD
$$ penalty with 0.25, 25 $$
*PART
$#                                                             heading
spring                                                                
$#     pid     secid       mid     eosid      hgid      grav    adpopt      tmid
        23         4        11                                                  
*SECTION_DISCRETE
$#   secid       dro        kd        v0        cl        fd
         4         0       0.0       0.0       0.0       0.0
$#     cdl       tdl
       0.0       0.0
*MAT_SPRING_ELASTIC
$#     mid         k
        11      0.05
*DEFINE_SD_ORIENTATION
$#     vid       iop        xt        yt        zt      nid1      nid2
       116         0 0.0342057-0.8711153-0.4898859         0         0
       117         0 -0.264821-0.9639463-0.0260247         0         0
       118         00.03021565-0.9118529-0.4094035         0         0
       119         00.32347664 0.12985730.93728334         0         0
       120         00.11717434-0.40830310.90529484         0         0
       121         0-0.0174751-0.73666520.67603183         0         0
       122         0 -0.200641-0.74245890.63913828         0         0
       123         00.47389612-0.69112870.54567724         0         0
       124         00.60704005-0.50344710.61485231         0         0
       125         0-0.0527751-0.5179935  0.853755         0         0
       126         00.87561578-0.40231540.26728144         0         0
       127         00.73522782-0.42910440.52469933         0         0
       128         00.56926191-0.43961950.69474852         0         0
       129         00.61085331-0.48981880.62204158         0         0
       130         0-0.0407701 0.22358440.97383159         0         0
       131         0-0.5361727-0.24228850.80858839         0         0
       132         0-0.6179405-0.3515678 0.7032423         0         0
       133         0  0.261323-0.0478511-0.9640646         0         0
       134         00.249252240.01699249-0.9682896         0         0
       135         00.11964986-0.0833346-0.9893125         0         0
$ ... 9519 like lines cut
*ELEMENT_DISCRETE
$#   eid     pid      n1      n2     vid               s      pf          offset
     225      23   25957       0     1160.00038796351873       0             0.0
     226      23   26356       0     1170.00021378797828       0             0.0
     227      23   24776       0     118 0.0003022418241       0             0.0
     228      23   26333       0     1190.01675040088594       0             0.0
     229      23   25884       0     1200.01553083118051       0             0.0
     230      23   26414       0     121 0.0179061293602       0             0.0
     231      23   25857       0     122 0.0006699890364       0             0.0
     232      23   23291       0     1230.00108624296263       0             0.0
     233      23   15633       0     1240.00093034596648       0             0.0
     234      23   25863       0     1250.00022936511959       0             0.0
     235      23   10236       0     1260.00029917762731       0             0.0
     236      23    6285       0     1270.00026676803827       0             0.0
     237      23   23727       0     1280.00058970367536       0             0.0
     238      23    5747       0     1290.00026683666511       0             0.0
     239      23   18645       0     1300.71637719869614       0             0.0
     240      23   25356       0     1310.95055031776428       0             0.0
     241      23   26189       0     1320.76069211959839       0             0.0
     242      23     628       0     1330.00029140754486       0             0.0
     243      23   26054       0     1340.00032867636764       0             0.0
     244      23   26432       0     1350.00020321039483       0             0.0
$ ... 9519 like lines cut
*PART
$#                                                             heading
damper                                                                
$#     pid     secid       mid     eosid      hgid      grav    adpopt      tmid
        24         5        12                                                  
*SECTION_DISCRETE
$#   secid       dro        kd        v0        cl        fd
         5         0       0.0       0.0       0.0       0.0
$#     cdl       tdl
       0.0       0.0
*MAT_DAMPER_VISCOUS
$#     mid        dc
        12     0.005
*DEFINE_SD_ORIENTATION
$#     vid       iop        xt        yt        zt      nid1      nid2
      9655         0 0.0342057-0.8711153-0.4898859         0         0
      9656         0 -0.264821-0.9639463-0.0260247         0         0
      9657         00.03021565-0.9118529-0.4094035         0         0
      9658         00.32347664 0.12985730.93728334         0         0
      9659         00.11717434-0.40830310.90529484         0         0
      9660         0-0.0174751-0.73666520.67603183         0         0
      9661         0 -0.200641-0.74245890.63913828         0         0
      9662         00.47389612-0.69112870.54567724         0         0
      9663         00.60704005-0.50344710.61485231         0         0
      9664         0-0.0527751-0.5179935  0.853755         0         0
      9665         00.87561578-0.40231540.26728144         0         0
      9666         00.73522782-0.42910440.52469933         0         0
      9667         00.56926191-0.43961950.69474852         0         0
      9668         00.61085331-0.48981880.62204158         0         0
      9669         0-0.0407701 0.22358440.97383159         0         0
      9670         0-0.5361727-0.24228850.80858839         0         0
      9671         0-0.6179405-0.3515678 0.7032423         0         0
      9672         0  0.261323-0.0478511-0.9640646         0         0
      9673         00.249252240.01699249-0.9682896         0         0
      9674         00.11964986-0.0833346-0.9893125         0         0
$ ... 9809 like lines cut
*ELEMENT_DISCRETE
$#   eid     pid      n1      n2     vid               s      pf          offset
    9764      24   25957       0    9655 1.2628707885742       0             0.0
    9765      24   26356       0    96560.70869356393814       0             0.0
    9766      24   24776       0    96570.87209212779999       0             0.0
    9767      24   26333       0    9658 1.1222732067108       0             0.0
    9768      24   25884       0    9659 1.3289022445679       0             0.0
    9769      24   26414       0    9660 1.1625351905823       0             0.0
    9770      24   25857       0    9661 1.4882349967957       0             0.0
    9771      24   23291       0    9662 1.7624123096466       0             0.0
    9772      24   15633       0    9663 1.7122118473053       0             0.0
    9773      24   25863       0    9664 1.2732264995575       0             0.0
    9774      24   10236       0    9665 1.2240123748779       0             0.0
    9775      24    6285       0    9666 1.2986060380936       0             0.0
    9776      24   23727       0    9667 1.3643482923508       0             0.0
    9777      24    5747       0    9668 1.6654965877533       0             0.0
    9778      24   18645       0    96690.76278978586197       0             0.0
    9779      24   25356       0    9670 1.0133956670761       0             0.0
    9780      24   26189       0    96710.80021578073502       0             0.0
    9781      24     628       0    9672 1.5376422405243       0             0.0
    9782      24   26054       0    9673  1.575417637825       0             0.0
    9783      24   26432       0    9674 1.2824755907059       0             0.0
$ ... 9809 like lines cut
*PART
$#                                                             heading
spring                                                                
$#     pid     secid       mid     eosid      hgid      grav    adpopt      tmid
        25         6        13                                                  
*SECTION_DISCRETE
$#   secid       dro        kd        v0        cl        fd
         6         0       0.0       0.0       0.0       0.0
$#     cdl       tdl
       0.0       0.0
*MAT_SPRING_ELASTIC
$#     mid         k
        13   7.5e-05
*DEFINE_SD_ORIENTATION
$#     vid       iop        xt        yt        zt      nid1      nid2
     19484         0-0.39575240.00822383-0.9183205         0         0
     19485         0-0.3945074-0.0688353 -0.916311         0         0
     19486         0-0.5238973  0.166951-0.8352597         0         0
     19487         00.068530190.48572609-0.8714205         0         0
     19488         00.004326230.56042749-0.8281921         0         0
     19489         00.109767060.44111672-0.8907116         0         0
     19490         0-0.19829890.92559689-0.3224095         0         0
     19491         0-0.42372580.86119169 -0.280723         0         0
     19492         0-0.28264450.89498466-0.3451296         0         0
     19493         00.516540290.30468184-0.8002219         0         0
     19494         00.521493320.34305167-0.7812556         0         0
     19495         00.75475854-0.0607622-0.6531826         0         0
     19496         00.24732704 0.2149546-0.9447877         0         0
     19497         00.291841330.23709531-0.9266146         0         0
     19498         00.275375190.33939841-0.8994316         0         0
     19499         00.196631460.68450594-0.7019884         0         0
     19500         00.511891720.58744293-0.6267996         0         0
     19501         0-0.07046960.64312917-0.7625083         0         0
     19502         0-0.00793640.83614558-0.5484501         0         0
     19503         00.32126874-0.1246961-0.9387423         0         0
$ ... 6677 like lines cut
*ELEMENT_DISCRETE
$#   eid     pid      n1      n2     vid               s      pf          offset
   19593      25   44681       0   19484 1.5941262245178       0             0.0
   19594      25   43617       0   19485 1.9464905261993       0             0.0
   19595      25   44601       0   19486 1.7620528936386       0             0.0
   19596      25   41926       0   194870.48216617107391       0             0.0
   19597      25   42393       0   194880.71649450063705       0             0.0
   19598      25   41730       0   19489 1.5168259143829       0             0.0
   19599      25   42091       0   194900.53606396913528       0             0.0
   19600      25   44093       0   19491 1.0991163253784       0             0.0
   19601      25   42088       0   194920.77518850564957       0             0.0
   19602      25   43135       0   19493 1.3869199752808       0             0.0
   19603      25   45793       0   19494 1.6327061653137       0             0.0
   19604      25   43433       0   19495 1.1740721464157       0             0.0
   19605      25   43423       0   194960.52403193712234       0             0.0
   19606      25   43422       0   19497 1.0437563657761       0             0.0
   19607      25   41457       0   19498  1.200893163681       0             0.0
   19608      25   43134       0   19499 1.3513913154602       0             0.0
   19609      25   43144       0   19500 1.3244395256042       0             0.0
   19610      25   43133       0   19501 1.5308694839478       0             0.0
   19611      25   43424       0   19502 1.2489341497421       0             0.0
   19612      25   44973       0   19503 1.1084426641464       0             0.0
$ ... 6677 like lines cut
*PART
$#                                                             heading
damper                                                                
$#     pid     secid       mid     eosid      hgid      grav    adpopt      tmid
        26         7        14                                                  
*SECTION_DISCRETE
$#   secid       dro        kd        v0        cl        fd
         7         0       0.0       0.0       0.0       0.0
$#     cdl       tdl
       0.0       0.0
*MAT_DAMPER_VISCOUS
$#     mid        dc
        14     0.005
*DEFINE_SD_ORIENTATION
$#     vid       iop        xt        yt        zt      nid1      nid2
     26181         0-0.39575240.00822383-0.9183205         0         0
     26182         0-0.3945074-0.0688353 -0.916311         0         0
     26183         0-0.5238973  0.166951-0.8352597         0         0
     26184         00.068530190.48572609-0.8714205         0         0
     26185         00.004326230.56042749-0.8281921         0         0
     26186         00.109767060.44111672-0.8907116         0         0
     26187         0-0.19829890.92559689-0.3224095         0         0
     26188         0-0.42372580.86119169 -0.280723         0         0
     26189         0-0.28264450.89498466-0.3451296         0         0
     26190         00.516540290.30468184-0.8002219         0         0
     26191         00.521493320.34305167-0.7812556         0         0
     26192         00.75475854-0.0607622-0.6531826         0         0
     26193         00.24732704 0.2149546-0.9447877         0         0
     26194         00.291841330.23709531-0.9266146         0         0
     26195         00.275375190.33939841-0.8994316         0         0
     26196         00.196631460.68450594-0.7019884         0         0
     26197         00.511891720.58744293-0.6267996         0         0
     26198         0-0.07046960.64312917-0.7625083         0         0
     26199         0-0.00793640.83614558-0.5484501         0         0
     26200         00.32126874-0.1246961-0.9387423         0         0
$ ... 6677 like lines cut
*ELEMENT_DISCRETE
$#   eid     pid      n1      n2     vid               s      pf          offset
   26290      26   44681       0   26181 1.5941262245178       0             0.0
   26291      26   43617       0   26182 1.9464905261993       0             0.0
   26292      26   44601       0   26183 1.7620528936386       0             0.0
   26293      26   41926       0   261840.48216617107391       0             0.0
   26294      26   42393       0   261850.71649450063705       0             0.0
   26295      26   41730       0   26186 1.5168259143829       0             0.0
   26296      26   42091       0   261870.53606396913528       0             0.0
   26297      26   44093       0   26188 1.0991163253784       0             0.0
   26298      26   42088       0   261890.77518850564957       0             0.0
   26299      26   43135       0   26190 1.3869199752808       0             0.0
   26300      26   45793       0   26191 1.6327061653137       0             0.0
   26301      26   43433       0   26192 1.1740721464157       0             0.0
   26302      26   43423       0   261930.52403193712234       0             0.0
   26303      26   43422       0   26194 1.0437563657761       0             0.0
   26304      26   41457       0   26195  1.200893163681       0             0.0
   26305      26   43134       0   26196 1.3513913154602       0             0.0
   26306      26   43144       0   26197 1.3244395256042       0             0.0
   26307      26   43133       0   26198 1.5308694839478       0             0.0
   26308      26   43424       0   26199 1.2489341497421       0             0.0
   26309      26   44973       0   26200 1.1084426641464       0             0.0
$ ... 6677 like lines cut
*END