*KEYWORD
*MAT_295
$#     mid       rho      aopt
         1     1e-06       2.0
$#   title     itype      beta        nu
ISO               -3       0.0     0.499
$#      k1        k2
      2.36      1.75
$#   title     atype    intype        nf
ANISO             -1         0         1
$#   theta         a         b
       0.0      0.08      0.76
$#   ftype      fcid        k1        k2
         1         0      0.49      9.01
$#   title    actype     acdir      acid     acthr        sf        ss        sn
ACTIVE             2         1         4       0.1       1.0      0.02      0.02
$#      t0    ca2ion   ca2ionm         n    taumax       stf         b        l0
                          4.35       2.0     125.0       0.0      4.75      1.58
$#       l       eta
      1.78      1.45
$#      xp        yp        zp        a1        a2        a3      macf
                                                                     1
$#      v1        v2        v3        d1        d2        d3      beta       ref
                                                                                
*MAT_295
$#     mid       rho      aopt
         2     1e-06       2.0
$#   title     itype      beta        nu
ISO               -3       0.0     0.499
$#      k1        k2
      2.36      1.75
$#   title     atype    intype        nf
ANISO             -1         0         1
$#   theta         a         b
       0.0      0.08      0.76
$#   ftype      fcid        k1        k2
         1         0      0.49      9.01
$#   title    actype     acdir      acid     acthr        sf        ss        sn
ACTIVE             2         1         4       0.1       1.0      0.02      0.02
$#      t0    ca2ion   ca2ionm         n    taumax       stf         b        l0
                          4.35       2.0     125.0       0.0      4.75      1.58
$#       l       eta
      1.78      1.45
$#      xp        yp        zp        a1        a2        a3      macf
                                                                     1
$#      v1        v2        v3        d1        d2        d3      beta       ref
                                                                                
*MAT_295
$#     mid       rho      aopt
         3     1e-06       2.0
$#   title     itype      beta        nu
ISO               -3       0.0     0.499
$#      k1        k2
      2.36      1.75
$#   title     atype    intype        nf
ANISO             -1         0         1
$#   theta         a         b
       0.0      0.08      0.76
$#   ftype      fcid        k1        k2
         1         0      0.49      9.01
$#   title    actype     acdir      acid     acthr        sf        ss        sn
ACTIVE             2         1         4       0.1       1.0      0.02      0.02
$#      t0    ca2ion   ca2ionm         n    taumax       stf         b        l0
                          4.35       2.0     125.0       0.0      4.75      1.58
$#       l       eta
      1.78      1.45
$#      xp        yp        zp        a1        a2        a3      macf
                                                                     1
$#      v1        v2        v3        d1        d2        d3      beta       ref
                                                                                
*DEFINE_CURVE_TITLE
$#                                                                         title
calcium_concentration                                                           
$#    lcid      sidr       sfa       sfo      offa      offo    dattyp     lcint
         4         0       1.0      4.35       1.0       0.0         0     15000
$#                a1                  o1
                 0.0                 0.0
                0.010.005893415025610356
                0.020.023297795342336568
0.0299999999999999990.051413002849763009
0.040000000000000001  0.0889912857291809
0.0500000000000000030.134451028465230382
0.0599999999999999980.186010577471532434
0.0700000000000000070.241823873934142841
0.0800000000000000020.300102058684152073
0.0899999999999999970.359210030410224535
0.100000000000000006 0.41773263056693094
0.1100000000000000010.474510341360927401
0.1199999999999999960.528648243612281243
0.1300000000000000040.579504177669264209
0.1400000000000000130.626662724002011728
0.1499999999999999940.669901168899255994
0.1600000000000000030.709152512638701715
0.1700000000000000120.744469221281703897
0.1799999999999999930.775990108730231776
0.1900000000000000020.803911627674573359
$ ... 1480 like lines cut
*END