*KEYWORD
*PART
$#                                                             heading
SupportSpring                                                         
$#     pid     secid       mid     eosid      hgid      grav    adpopt      tmid
         8         3         5                                                  
*SECTION_DISCRETE
$#   secid       dro        kd        v0        cl        fd
         3         0       0.0       0.0       0.0       0.0
$#     cdl       tdl
       0.0       0.0
*MAT_SPRING_ELASTIC
$#     mid         k
         5     0.002
$$ spring at mitral-valve$$
*DEFINE_SD_ORIENTATION
$#     vid       iop        xt        yt        zt      nid1      nid2
         1         00.83100641-0.4104141-0.2894822         0         0
*DEFINE_SD_ORIENTATION
$#     vid       iop        xt        yt        zt      nid1      nid2
         2         0 -0.0407520.50716788-0.8608833         0         0
         3         00.013133910.58248252-0.8127371         0         0
         4         0-0.3141716-0.90729290.27949199         0         0
         5         0-0.3506266-0.90867930.22663382         0         0
         6         0-0.4047241-0.91413460.02358541         0         0
         7         0-0.4216656-0.9016113-0.0964121         0         0
         8         00.419131520.178149580.89027607         0         0
         9         00.353905560.122597410.92721128         0         0
        10         0-0.0609479 -0.6800330.73064393         0         0
        11         0-0.1414157-0.73601930.66202509         0         0
        12         00.524784030.776678380.34838548         0         0
        13         00.540616330.74001306 0.4001433         0         0
        14         0-0.1822408-0.79680530.57609868         0         0
        15         0-0.2758163-0.84088360.46566099         0         0
        16         00.513006330.527784710.67695481         0         0
        17         00.529252470.450083050.71924758         0         0
        18         00.05248732-0.47527770.87826884         0         0
        19         00.01538106 -0.5199770.85404176         0         0
        20         00.369018350.89069998-0.2654788         0         0
        21         00.393803210.90463209-0.1629717         0         0
$ ... 52 like lines cut
*ELEMENT_DISCRETE
$#   eid     pid      n1      n2     vid               s      pf          offset
       1       8   13855       0       1 5.8082384391745       0             0.0
       2       8   14269       0       1 5.6150625899664       0             0.0
       3       8   12396       0       1 2.1369967387293       0             0.0
       4       8   12144       0       1 2.5475264395674       0             0.0
       5       8   11748       0       1 3.3782616016359       0             0.0
       6       8   11636       0       1 3.2995262402856       0             0.0
       7       8   18488       0       1 7.2350372304608       0             0.0
       8       8   17678       0       1 8.1391784648226       0             0.0
       9       8   13775       0       1 3.4460167229307       0             0.0
      10       8   13226       0       1 4.2624954834917       0             0.0
      11       8   19356       0       1 4.3699950260916       0             0.0
      12       8   19557       0       1 5.7408180186678       0             0.0
      13       8   13046       0       1 4.3852122409113       0             0.0
      14       8   12537       0       1 4.2488727332148       0             0.0
      15       8   19508       0       1 7.1516288168022       0             0.0
      16       8   19643       0       1 6.8661329890259       0             0.0
      17       8   14612       0       1 4.2269509691067       0             0.0
      18       8   14301       0       1 3.7974087226124       0             0.0
      19       8   17262       0       1  5.996379845704       0             0.0
      20       8   17518       0       1 6.0493704097303       0             0.0
$ ... 52 like lines cut
*ELEMENT_DISCRETE
$#   eid     pid      n1      n2     vid               s      pf          offset
      73       8   13855       0       2 11.616476878349       0             0.0
      74       8   14269       0       3 11.230125179933       0             0.0
      75       8   12396       0       4 4.2739934774586       0             0.0
      76       8   12144       0       5 5.0950528791348       0             0.0
      77       8   11748       0       6 6.7565232032719       0             0.0
      78       8   11636       0       7 6.5990524805711       0             0.0
      79       8   18488       0       8 14.470074460922       0             0.0
      80       8   17678       0       9 16.278356929645       0             0.0
      81       8   13775       0      10 6.8920334458614       0             0.0
      82       8   13226       0      11 8.5249909669834       0             0.0
      83       8   19356       0      12 8.7399900521831       0             0.0
      84       8   19557       0      13 11.481636037336       0             0.0
      85       8   13046       0      14 8.7704244818227       0             0.0
      86       8   12537       0      15 8.4977454664295       0             0.0
      87       8   19508       0      16 14.303257633604       0             0.0
      88       8   19643       0      17 13.732265978052       0             0.0
      89       8   14612       0      18 8.4539019382133       0             0.0
      90       8   14301       0      19 7.5948174452248       0             0.0
      91       8   17262       0      20 11.992759691408       0             0.0
      92       8   17518       0      21 12.098740819461       0             0.0
$ ... 52 like lines cut
$$ spring at aortic-valve$$
*DEFINE_SD_ORIENTATION
$#     vid       iop        xt        yt        zt      nid1      nid2
        74         00.69666499 0.2582092-0.6051818         0         0
*DEFINE_SD_ORIENTATION
$#     vid       iop        xt        yt        zt      nid1      nid2
        75         00.69283819-0.5882451 0.4170647         0         0
        76         00.62687802-0.6950169 0.3521015         0         0
        77         0-0.58453260.73721969-0.3388638         0         0
        78         0-0.4681923 0.8253026-0.3157081         0         0
        79         00.636598470.041905490.77005607         0         0
        80         00.64557946-0.0662236 0.7608164         0         0
        81         0-0.40602430.89575976-0.1809938         0         0
        82         0-0.35010530.93633652-0.0264618         0         0
        83         0 0.6936934-0.27869530.66416746         0         0
        84         00.71520561-0.38057730.58620977         0         0
        85         00.208639430.804914650.55550158         0         0
        86         00.278647510.72171766 0.6336239         0         0
        87         0-0.23767620.965744440.10415252         0         0
        88         0-0.13326090.961241480.24136356         0         0
        89         0-0.63025090.61009425-0.4801759         0         0
        90         0-0.6174911 0.6750899 -0.403681         0         0
        91         0 -0.6371270.53967297-0.5502928         0         0
        92         00.69054949-0.16435830.70436335         0         0
        93         00.002196850.937566280.34779972         0         0
        94         00.139968340.88673002 0.4405891         0         0
$ ... 33 like lines cut
*ELEMENT_DISCRETE
$#   eid     pid      n1      n2     vid               s      pf          offset
     145       8   13841       0      74 4.4091658792031       0             0.0
     146       8   13242       0      74 3.6975439781494       0             0.0
     147       8    6813       0      74 2.8295039321808       0             0.0
     148       8    7495       0      74 3.1334677922311       0             0.0
     149       8   14383       0      74 5.0093695267174       0             0.0
     150       8   14218       0      74 5.0360281214534       0             0.0
     151       8    7868       0      74 3.1296968663511       0             0.0
     152       8    8075       0      74 3.2549370619371       0             0.0
     153       8   14171       0      74 4.6901678606177       0             0.0
     154       8   14161       0      74 4.5145631131914       0             0.0
     155       8   10762       0      74 3.2925113044494       0             0.0
     156       8   11176       0      74  3.321964309581       0             0.0
     157       8    8595       0      74 3.3201442195314       0             0.0
     158       8    9104       0      74 3.3072222568504       0             0.0
     159       8    5986       0      74 3.5308092269465       0             0.0
     160       8    6337       0      74 2.8742757284868       0             0.0
     161       8    5660       0      74 3.7377811926161       0             0.0
     162       8   14406       0      74 4.9165378678653       0             0.0
     163       8    9744       0      74 3.4007051802324       0             0.0
     164       8   10387       0      74 3.4199038181424       0             0.0
$ ... 33 like lines cut
*ELEMENT_DISCRETE
$#   eid     pid      n1      n2     vid               s      pf          offset
     198       8   13841       0      75 8.8183317584061       0             0.0
     199       8   13242       0      76 7.3950879562989       0             0.0
     200       8    6813       0      77 5.6590078643616       0             0.0
     201       8    7495       0      78 6.2669355844621       0             0.0
     202       8   14383       0      79 10.018739053435       0             0.0
     203       8   14218       0      80 10.072056242907       0             0.0
     204       8    7868       0      81 6.2593937327023       0             0.0
     205       8    8075       0      82 6.5098741238741       0             0.0
     206       8   14171       0      83 9.3803357212355       0             0.0
     207       8   14161       0      84 9.0291262263828       0             0.0
     208       8   10762       0      85 6.5850226088988       0             0.0
     209       8   11176       0      86 6.6439286191621       0             0.0
     210       8    8595       0      87 6.6402884390629       0             0.0
     211       8    9104       0      88 6.6144445137007       0             0.0
     212       8    5986       0      89  7.061618453893       0             0.0
     213       8    6337       0      90 5.7485514569735       0             0.0
     214       8    5660       0      91 7.4755623852322       0             0.0
     215       8   14406       0      92 9.8330757357307       0             0.0
     216       8    9744       0      93 6.8014103604649       0             0.0
     217       8   10387       0      94 6.8398076362848       0             0.0
$ ... 33 like lines cut
$$ spring at tricuspid-valve$$
*DEFINE_SD_ORIENTATION
$#     vid       iop        xt        yt        zt      nid1      nid2
       128         00.72316664 -0.601681-0.2387166         0         0
*DEFINE_SD_ORIENTATION
$#     vid       iop        xt        yt        zt      nid1      nid2
       129         0-0.0839115-0.44506650.89155746         0         0
       130         0-0.0996939-0.48315270.86984169         0         0
       131         0-0.0561242 -0.4408670.89581603         0         0
       132         00.496725020.77418071-0.3923118         0         0
       133         00.530929680.78118777-0.3284194         0         0
       134         00.553726670.79201049-0.2571111         0         0
       135         00.577613410.79501516-0.1852394         0         0
       136         0-0.3542805-0.68823590.63310087         0         0
       137         0-0.3883835-0.70187030.59710664         0         0
       138         0-0.3200386-0.6731489 0.6666677         0         0
       139         00.603563430.78600615-0.1338114         0         0
       140         0 0.66143280.616960230.42645836         0         0
       141         00.609288330.61923593 0.4952924         0         0
       142         00.647581930.728928030.22203957         0         0
       143         00.653866650.709682230.26231572         0         0
       144         00.21871436-0.09311670.97133583         0         0
       145         00.19175126-0.12543090.97339535         0         0
       146         00.428368810.158608910.88957483         0         0
       147         00.377381860.12925556 0.9169929         0         0
       148         00.493714390.255629360.83120376         0         0
$ ... 75 like lines cut
*ELEMENT_DISCRETE
$#   eid     pid      n1      n2     vid               s      pf          offset
     251       8    1812       0     128 5.4254217098005       0             0.0
     252       8    1752       0     128 7.0262648989829       0             0.0
     253       8    1915       0     128 6.7876630246958       0             0.0
     254       8    4392       0     128 7.4799056746526       0             0.0
     255       8    4554       0     128 7.9282863062481       0             0.0
     256       8    4726       0     128 7.9798044301084       0             0.0
     257       8    4905       0     128 6.9974494629411       0             0.0
     258       8     905       0     128 5.9671148835162       0             0.0
     259       8     804       0     128 7.2768337985728       0             0.0
     260       8    1015       0     128 7.2913293737599       0             0.0
     261       8    5050       0     128 6.2367472724888       0             0.0
     262       8    5131       0     128 7.7056723651267       0             0.0
     263       8    4575       0     128 7.3612770640152       0             0.0
     264       8    5382       0     128 5.2906058201819       0             0.0
     265       8    5258       0     128 6.8280798992894       0             0.0
     266       8    2994       0     128 6.3015320436472       0             0.0
     267       8    2886       0     128 7.8506372220553       0             0.0
     268       8    3724       0     128 6.3142156879401       0             0.0
     269       8    3515       0     128 6.9128116687406       0             0.0
     270       8    4039       0     128 6.3728807880961       0             0.0
$ ... 75 like lines cut
*ELEMENT_DISCRETE
$#   eid     pid      n1      n2     vid               s      pf          offset
     346       8    1812       0     129 10.850843419601       0             0.0
     347       8    1752       0     130 14.052529797966       0             0.0
     348       8    1915       0     131 13.575326049392       0             0.0
     349       8    4392       0     132 14.959811349305       0             0.0
     350       8    4554       0     133 15.856572612496       0             0.0
     351       8    4726       0     134 15.959608860217       0             0.0
     352       8    4905       0     135 13.994898925882       0             0.0
     353       8     905       0     136 11.934229767032       0             0.0
     354       8     804       0     137 14.553667597146       0             0.0
     355       8    1015       0     138  14.58265874752       0             0.0
     356       8    5050       0     139 12.473494544978       0             0.0
     357       8    5131       0     140 15.411344730253       0             0.0
     358       8    4575       0     141  14.72255412803       0             0.0
     359       8    5382       0     142 10.581211640364       0             0.0
     360       8    5258       0     143 13.656159798579       0             0.0
     361       8    2994       0     144 12.603064087294       0             0.0
     362       8    2886       0     145 15.701274444111       0             0.0
     363       8    3724       0     146  12.62843137588       0             0.0
     364       8    3515       0     147 13.825623337481       0             0.0
     365       8    4039       0     148 12.745761576192       0             0.0
$ ... 75 like lines cut
$$ spring at pulmonary-valve$$
*DEFINE_SD_ORIENTATION
$#     vid       iop        xt        yt        zt      nid1      nid2
       224         00.39891228-0.5788276-0.6553067         0         0
*DEFINE_SD_ORIENTATION
$#     vid       iop        xt        yt        zt      nid1      nid2
       225         00.523934480.77137899-0.3612024         0         0
       226         00.586401880.73646343 -0.337275         0         0
       227         00.484534080.75474894-0.4422451         0         0
       228         00.302134390.79805052-0.5213733         0         0
       229         00.327953760.81974882-0.4695297         0         0
       230         00.670769930.70662838-0.2252643         0         0
       231         00.722876670.67204136-0.1606539         0         0
       232         0-0.03281370.75914198-0.6500975         0         0
       233         00.03786084 0.7368654-0.6749784         0         0
       234         0 0.82721430.561848280.00656014         0         0
       235         00.863323630.500577210.06399061         0         0
       236         0  0.0757630.77542359-0.6268797         0         0
       237         00.149316490.79849195 -0.583194         0         0
       238         00.853981730.028016590.51954818         0         0
       239         00.82577437-0.06330940.56043607         0         0
       240         00.12481633 -0.6947110.70837665         0         0
       241         00.04479767-0.74039860.67067355         0         0
       242         0-0.8795336-0.4639058-0.1058866         0         0
       243         0-0.8907813-0.4255331-0.1594688         0         0
       244         0-0.9033889-0.2224579-0.3666074         0         0
$ ... 51 like lines cut
*ELEMENT_DISCRETE
$#   eid     pid      n1      n2     vid               s      pf          offset
     441       8   18137       0     224 5.7918935331076       0             0.0
     442       8   18602       0     224 4.6247548744717       0             0.0
     443       8   17830       0     224 6.0233583655097       0             0.0
     444       8   15985       0     224 4.8711292850855       0             0.0
     445       8   16352       0     224 6.3132653417653       0             0.0
     446       8   19279       0     224 5.2254030358914       0             0.0
     447       8   19762       0     224   5.43996792214       0             0.0
     448       8   12950       0     224 3.7232324107073       0             0.0
     449       8   13493       0     224 3.8855734745628       0             0.0
     450       8   20407       0     224 4.5790700257994       0             0.0
     451       8   20813       0     224 4.8780612563047       0             0.0
     452       8   13824       0     224 4.6920578850343       0             0.0
     453       8   14499       0     224  5.814203408135       0             0.0
     454       8   19521       0     224  4.216368726922       0             0.0
     455       8   19299       0     224 4.2478412302005       0             0.0
     456       8   14122       0     224 4.8075675903714       0             0.0
     457       8   13554       0     224 4.9285297447587       0             0.0
     458       8    5740       0     224 5.1180539202662       0             0.0
     459       8    5768       0     224 4.5409016373753       0             0.0
     460       8    6634       0     224 2.8561994125269       0             0.0
$ ... 51 like lines cut
*ELEMENT_DISCRETE
$#   eid     pid      n1      n2     vid               s      pf          offset
     512       8   18137       0     225 11.583787066215       0             0.0
     513       8   18602       0     226 9.2495097489434       0             0.0
     514       8   17830       0     227 12.046716731019       0             0.0
     515       8   15985       0     228  9.742258570171       0             0.0
     516       8   16352       0     229 12.626530683531       0             0.0
     517       8   19279       0     230 10.450806071783       0             0.0
     518       8   19762       0     231  10.87993584428       0             0.0
     519       8   12950       0     232 7.4464648214147       0             0.0
     520       8   13493       0     233 7.7711469491256       0             0.0
     521       8   20407       0     234 9.1581400515989       0             0.0
     522       8   20813       0     235 9.7561225126095       0             0.0
     523       8   13824       0     236 9.3841157700685       0             0.0
     524       8   14499       0     237  11.62840681627       0             0.0
     525       8   19521       0     238  8.432737453844       0             0.0
     526       8   19299       0     239  8.495682460401       0             0.0
     527       8   14122       0     240 9.6151351807428       0             0.0
     528       8   13554       0     241 9.8570594895174       0             0.0
     529       8    5740       0     242 10.236107840532       0             0.0
     530       8    5768       0     243 9.0818032747505       0             0.0
     531       8    6634       0     244 5.7123988250538       0             0.0
$ ... 51 like lines cut
*END