*KEYWORD
*PART
$#                                                             heading
SupportSpring                                                         
$#     pid     secid       mid     eosid      hgid      grav    adpopt      tmid
         8         3         5                                                  
*SECTION_DISCRETE
$#   secid       dro        kd        v0        cl        fd
         3         0       0.0       0.0       0.0       0.0
$#     cdl       tdl
       0.0       0.0
*MAT_SPRING_ELASTIC
$#     mid         k
         5     0.002
$$ spring at mitral-valve$$
*DEFINE_SD_ORIENTATION
$#     vid       iop        xt        yt        zt      nid1      nid2
         1         00.83100641-0.4104141-0.2894822                    
*DEFINE_SD_ORIENTATION
$#     vid       iop        xt        yt        zt      nid1      nid2
         2         0 -0.0407520.50716788-0.8608833                    
         3         00.013133910.58248252-0.8127371                    
         4         0-0.3141716-0.90729290.27949199                    
         5         0-0.3506266-0.90867930.22663382                    
         6         0-0.4047241-0.91413460.02358541                    
         7         0-0.4216656-0.9016113-0.0964121                    
         8         00.419131520.178149580.89027607                    
         9         00.353905560.122597410.92721128                    
        10         0-0.0609479 -0.6800330.73064393                    
        11         0-0.1414157-0.73601930.66202509                    
        12         00.524784030.776678380.34838548                    
        13         00.540616330.74001306 0.4001433                    
        14         0-0.1822408-0.79680530.57609868                    
        15         0-0.2758163-0.84088360.46566099                    
        16         00.513006330.527784710.67695481                    
        17         00.529252470.450083050.71924758                    
        18         00.05248732-0.47527770.87826884                    
        19         00.01538106 -0.5199770.85404176                    
        20         00.369018350.89069998-0.2654788                    
        21         00.393803210.90463209-0.1629717                    
$ ... 52 like lines cut
*ELEMENT_DISCRETE
$#   eid     pid      n1      n2     vid               s      pf          offset
       1       8   23442       0       1 5.8082384391745                        
       2       8    8944       0       1 5.6150625899664                        
       3       8   26972       0       1 2.1369967387293                        
       4       8   26965       0       1 2.5475264395674                        
       5       8   26485       0       1 3.3782616016359                        
       6       8   26650       0       1 3.2995262402856                        
       7       8   24236       0       1 7.2350372304608                        
       8       8   24164       0       1 8.1391784648226                        
       9       8   26953       0       1 3.4460167229307                        
      10       8   26888       0       1 4.2624954834917                        
      11       8   19313       0       1 4.3699950260916                        
      12       8   19314       0       1 5.7408180186678                        
      13       8   26916       0       1 4.3852122409113                        
      14       8   26889       0       1 4.2488727332148                        
      15       8   24201       0       1 7.1516288168022                        
      16       8   26930       0       1 6.8661329890259                        
      17       8   13707       0       1 4.2269509691067                        
      18       8   24521       0       1 3.7974087226124                        
      19       8   22158       0       1  5.996379845704                        
      20       8    1699       0       1 6.0493704097303                        
$ ... 52 like lines cut
*ELEMENT_DISCRETE
$#   eid     pid      n1      n2     vid               s      pf          offset
      73       8   23442       0       2 11.616476878349                        
      74       8    8944       0       3 11.230125179933                        
      75       8   26972       0       4 4.2739934774586                        
      76       8   26965       0       5 5.0950528791348                        
      77       8   26485       0       6 6.7565232032719                        
      78       8   26650       0       7 6.5990524805711                        
      79       8   24236       0       8 14.470074460922                        
      80       8   24164       0       9 16.278356929645                        
      81       8   26953       0      10 6.8920334458614                        
      82       8   26888       0      11 8.5249909669834                        
      83       8   19313       0      12 8.7399900521831                        
      84       8   19314       0      13 11.481636037336                        
      85       8   26916       0      14 8.7704244818227                        
      86       8   26889       0      15 8.4977454664295                        
      87       8   24201       0      16 14.303257633604                        
      88       8   26930       0      17 13.732265978052                        
      89       8   13707       0      18 8.4539019382133                        
      90       8   24521       0      19 7.5948174452248                        
      91       8   22158       0      20 11.992759691408                        
      92       8    1699       0      21 12.098740819461                        
$ ... 52 like lines cut
$$ spring at aortic-valve$$
*DEFINE_SD_ORIENTATION
$#     vid       iop        xt        yt        zt      nid1      nid2
        74         00.69666499 0.2582092-0.6051818                    
*DEFINE_SD_ORIENTATION
$#     vid       iop        xt        yt        zt      nid1      nid2
        75         00.69283819-0.5882451 0.4170647                    
        76         00.62687802-0.6950169 0.3521015                    
        77         0-0.58453260.73721969-0.3388638                    
        78         0-0.4681923 0.8253026-0.3157081                    
        79         00.636598470.041905490.77005607                    
        80         00.64557946-0.0662236 0.7608164                    
        81         0-0.40602430.89575976-0.1809938                    
        82         0-0.35010530.93633652-0.0264618                    
        83         0 0.6936934-0.27869530.66416746                    
        84         00.71520561-0.38057730.58620977                    
        85         00.208639430.804914650.55550158                    
        86         00.278647510.72171766 0.6336239                    
        87         0-0.23767620.965744440.10415252                    
        88         0-0.13326090.961241480.24136356                    
        89         0-0.63025090.61009425-0.4801759                    
        90         0-0.6174911 0.6750899 -0.403681                    
        91         0 -0.6371270.53967297-0.5502928                    
        92         00.69054949-0.16435830.70436335                    
        93         00.002196850.937566280.34779972                    
        94         00.139968340.88673002 0.4405891                    
$ ... 33 like lines cut
*ELEMENT_DISCRETE
$#   eid     pid      n1      n2     vid               s      pf          offset
     145       8   26616       0      74 4.4091658792031                        
     146       8   26004       0      74 3.6975439781494                        
     147       8   12972       0      74 2.8295039321808                        
     148       8   18938       0      74 3.1334677922311                        
     149       8   26552       0      74 5.0093695267174                        
     150       8   24802       0      74 5.0360281214534                        
     151       8   14511       0      74 3.1296968663511                        
     152       8   24629       0      74 3.2549370619371                        
     153       8   25148       0      74 4.6901678606177                        
     154       8   25147       0      74 4.5145631131914                        
     155       8   15123       0      74 3.2925113044494                        
     156       8   15122       0      74  3.321964309581                        
     157       8   25995       0      74 3.3201442195314                        
     158       8   24014       0      74 3.3072222568504                        
     159       8   13581       0      74 3.5308092269465                        
     160       8   20105       0      74 2.8742757284868                        
     161       8   25448       0      74 3.7377811926161                        
     162       8   25398       0      74 4.9165378678653                        
     163       8   24508       0      74 3.4007051802324                        
     164       8   23481       0      74 3.4199038181424                        
$ ... 33 like lines cut
*ELEMENT_DISCRETE
$#   eid     pid      n1      n2     vid               s      pf          offset
     198       8   26616       0      75 8.8183317584061                        
     199       8   26004       0      76 7.3950879562989                        
     200       8   12972       0      77 5.6590078643616                        
     201       8   18938       0      78 6.2669355844621                        
     202       8   26552       0      79 10.018739053435                        
     203       8   24802       0      80 10.072056242907                        
     204       8   14511       0      81 6.2593937327023                        
     205       8   24629       0      82 6.5098741238741                        
     206       8   25148       0      83 9.3803357212355                        
     207       8   25147       0      84 9.0291262263828                        
     208       8   15123       0      85 6.5850226088988                        
     209       8   15122       0      86 6.6439286191621                        
     210       8   25995       0      87 6.6402884390629                        
     211       8   24014       0      88 6.6144445137007                        
     212       8   13581       0      89  7.061618453893                        
     213       8   20105       0      90 5.7485514569735                        
     214       8   25448       0      91 7.4755623852322                        
     215       8   25398       0      92 9.8330757357307                        
     216       8   24508       0      93 6.8014103604649                        
     217       8   23481       0      94 6.8398076362848                        
$ ... 33 like lines cut
$$ spring at tricuspid-valve$$
*DEFINE_SD_ORIENTATION
$#     vid       iop        xt        yt        zt      nid1      nid2
       128         00.72316664 -0.601681-0.2387166                    
*DEFINE_SD_ORIENTATION
$#     vid       iop        xt        yt        zt      nid1      nid2
       129         0-0.0839115-0.44506650.89155746                    
       130         0-0.0996939-0.48315270.86984169                    
       131         0-0.0561242 -0.4408670.89581603                    
       132         00.496725020.77418071-0.3923118                    
       133         00.530929680.78118777-0.3284194                    
       134         00.553726670.79201049-0.2571111                    
       135         00.577613410.79501516-0.1852394                    
       136         0-0.3542805-0.68823590.63310087                    
       137         0-0.3883835-0.70187030.59710664                    
       138         0-0.3200386-0.6731489 0.6666677                    
       139         00.603563430.78600615-0.1338114                    
       140         0 0.66143280.616960230.42645836                    
       141         00.609288330.61923593 0.4952924                    
       142         00.647581930.728928030.22203957                    
       143         00.653866650.709682230.26231572                    
       144         00.21871436-0.09311670.97133583                    
       145         00.19175126-0.12543090.97339535                    
       146         00.428368810.158608910.88957483                    
       147         00.377381860.12925556 0.9169929                    
       148         00.493714390.255629360.83120376                    
$ ... 75 like lines cut
*ELEMENT_DISCRETE
$#   eid     pid      n1      n2     vid               s      pf          offset
     251       8   39980       0     128 5.4254217098005                        
     252       8   38933       0     128 7.0262648989829                        
     253       8   39923       0     128 6.7876630246958                        
     254       8   30130       0     128 7.4799056746526                        
     255       8   36288       0     128 7.9282863062481                        
     256       8   36261       0     128 7.9798044301084                        
     257       8   35100       0     128 6.9974494629411                        
     258       8   34865       0     128 5.9671148835162                        
     259       8   30326       0     128 7.2768337985728                        
     260       8   30994       0     128 7.2913293737599                        
     261       8   35102       0     128 6.2367472724888                        
     262       8   31152       0     128 7.7056723651267                        
     263       8   31151       0     128 7.3612770640152                        
     264       8   35343       0     128 5.2906058201819                        
     265       8   34836       0     128 6.8280798992894                        
     266       8   36392       0     128 6.3015320436472                        
     267       8   36050       0     128 7.8506372220553                        
     268       8   35037       0     128 6.3142156879401                        
     269       8   35455       0     128 6.9128116687406                        
     270       8   30887       0     128 6.3728807880961                        
$ ... 75 like lines cut
*ELEMENT_DISCRETE
$#   eid     pid      n1      n2     vid               s      pf          offset
     346       8   39980       0     129 10.850843419601                        
     347       8   38933       0     130 14.052529797966                        
     348       8   39923       0     131 13.575326049392                        
     349       8   30130       0     132 14.959811349305                        
     350       8   36288       0     133 15.856572612496                        
     351       8   36261       0     134 15.959608860217                        
     352       8   35100       0     135 13.994898925882                        
     353       8   34865       0     136 11.934229767032                        
     354       8   30326       0     137 14.553667597146                        
     355       8   30994       0     138  14.58265874752                        
     356       8   35102       0     139 12.473494544978                        
     357       8   31152       0     140 15.411344730253                        
     358       8   31151       0     141  14.72255412803                        
     359       8   35343       0     142 10.581211640364                        
     360       8   34836       0     143 13.656159798579                        
     361       8   36392       0     144 12.603064087294                        
     362       8   36050       0     145 15.701274444111                        
     363       8   35037       0     146  12.62843137588                        
     364       8   35455       0     147 13.825623337481                        
     365       8   30887       0     148 12.745761576192                        
$ ... 75 like lines cut
$$ spring at pulmonary-valve$$
*DEFINE_SD_ORIENTATION
$#     vid       iop        xt        yt        zt      nid1      nid2
       224         00.39891228-0.5788276-0.6553067                    
*DEFINE_SD_ORIENTATION
$#     vid       iop        xt        yt        zt      nid1      nid2
       225         00.523934480.77137899-0.3612024                    
       226         00.586401880.73646343 -0.337275                    
       227         00.484534080.75474894-0.4422451                    
       228         00.302134390.79805052-0.5213733                    
       229         00.327953760.81974882-0.4695297                    
       230         00.670769930.70662838-0.2252643                    
       231         00.722876670.67204136-0.1606539                    
       232         0-0.03281370.75914198-0.6500975                    
       233         00.03786084 0.7368654-0.6749784                    
       234         0 0.82721430.561848280.00656014                    
       235         00.863323630.500577210.06399061                    
       236         0  0.0757630.77542359-0.6268797                    
       237         00.149316490.79849195 -0.583194                    
       238         00.853981730.028016590.51954818                    
       239         00.82577437-0.06330940.56043607                    
       240         00.12481633 -0.6947110.70837665                    
       241         00.04479767-0.74039860.67067355                    
       242         0-0.8795336-0.4639058-0.1058866                    
       243         0-0.8907813-0.4255331-0.1594688                    
       244         0-0.9033889-0.2224579-0.3666074                    
$ ... 51 like lines cut
*ELEMENT_DISCRETE
$#   eid     pid      n1      n2     vid               s      pf          offset
     441       8   36387       0     224 5.7918935331076                        
     442       8   39392       0     224 4.6247548744717                        
     443       8   30315       0     224 6.0233583655097                        
     444       8   32448       0     224 4.8711292850855                        
     445       8   32332       0     224 6.3132653417653                        
     446       8   38919       0     224 5.2254030358914                        
     447       8   33447       0     224   5.43996792214                        
     448       8   39010       0     224 3.7232324107073                        
     449       8   28787       0     224 3.8855734745628                        
     450       8   32380       0     224 4.5790700257994                        
     451       8   33458       0     224 4.8780612563047                        
     452       8   30221       0     224 4.6920578850343                        
     453       8   40991       0     224  5.814203408135                        
     454       8   38347       0     224  4.216368726922                        
     455       8   35804       0     224 4.2478412302005                        
     456       8   33167       0     224 4.8075675903714                        
     457       8   33166       0     224 4.9285297447587                        
     458       8   33961       0     224 5.1180539202662                        
     459       8   36561       0     224 4.5409016373753                        
     460       8   40145       0     224 2.8561994125269                        
$ ... 51 like lines cut
*ELEMENT_DISCRETE
$#   eid     pid      n1      n2     vid               s      pf          offset
     512       8   36387       0     225 11.583787066215                        
     513       8   39392       0     226 9.2495097489434                        
     514       8   30315       0     227 12.046716731019                        
     515       8   32448       0     228  9.742258570171                        
     516       8   32332       0     229 12.626530683531                        
     517       8   38919       0     230 10.450806071783                        
     518       8   33447       0     231  10.87993584428                        
     519       8   39010       0     232 7.4464648214147                        
     520       8   28787       0     233 7.7711469491256                        
     521       8   32380       0     234 9.1581400515989                        
     522       8   33458       0     235 9.7561225126095                        
     523       8   30221       0     236 9.3841157700685                        
     524       8   40991       0     237  11.62840681627                        
     525       8   38347       0     238  8.432737453844                        
     526       8   35804       0     239  8.495682460401                        
     527       8   33167       0     240 9.6151351807428                        
     528       8   33166       0     241 9.8570594895174                        
     529       8   33961       0     242 10.236107840532                        
     530       8   36561       0     243 9.0818032747505                        
     531       8   40145       0     244 5.7123988250538                        
$ ... 51 like lines cut
*END