*KEYWORD
*MAT_NULL
$#     mid        ro        pc        mu     terod     cerod        ym        pr
         4     0.001                                                            
*SECTION_SHELL
$#   secid    elform      shrf       nip     propt   qr/irid     icomp     setyp
         2         4    0.8333         3       1.0         0         0         1
$#      t1        t2        t3        t4      nloc     marea      idof    edgset
       1.0       0.0       0.0       0.0       0.0       0.0       0.0         0
*PART
$#                                                             heading
mitral-valve                                                          
$#     pid     secid       mid     eosid      hgid      grav    adpopt      tmid
         4         2         4                                                  
*CONSTRAINED_INTERPOLATION
$#    icid      dnid      ddof      cidd      ityp     idnsw       fgm
         2     42081       123                   1         0         0
$#    inid      idof    twghtx    twghty    twghtz    rwghtx    rwghty    rwghtz
         1       123       1.0       1.0       1.0       1.0       1.0       1.0
*PART
$#                                                             heading
aortic-valve                                                          
$#     pid     secid       mid     eosid      hgid      grav    adpopt      tmid
         5         2         4                                                  
*CONSTRAINED_INTERPOLATION
$#    icid      dnid      ddof      cidd      ityp     idnsw       fgm
         3     42082       123                   1         0         0
$#    inid      idof    twghtx    twghty    twghtz    rwghtx    rwghty    rwghtz
         2       123       1.0       1.0       1.0       1.0       1.0       1.0
*PART
$#                                                             heading
tricuspid-valve                                                       
$#     pid     secid       mid     eosid      hgid      grav    adpopt      tmid
         6         2         4                                                  
*CONSTRAINED_INTERPOLATION
$#    icid      dnid      ddof      cidd      ityp     idnsw       fgm
         4     42083       123                   1         0         0
$#    inid      idof    twghtx    twghty    twghtz    rwghtx    rwghty    rwghtz
         3       123       1.0       1.0       1.0       1.0       1.0       1.0
*PART
$#                                                             heading
pulmonary-valve                                                       
$#     pid     secid       mid     eosid      hgid      grav    adpopt      tmid
         7         2         4                                                  
*CONSTRAINED_INTERPOLATION
$#    icid      dnid      ddof      cidd      ityp     idnsw       fgm
         5     42084       123                   1         0         0
$#    inid      idof    twghtx    twghty    twghtz    rwghtx    rwghty    rwghtz
         4       123       1.0       1.0       1.0       1.0       1.0       1.0
*ELEMENT_SHELL
$#   eid     pid      n1      n2      n3      n4      n5      n6      n7      n8
       1       4   13855   14269   42081                                        
       2       4   12396   12144   42081                                        
       3       4   11748   11636   42081                                        
       4       4   18488   17678   42081                                        
       5       4   13775   13226   42081                                        
       6       4   19356   19557   42081                                        
       7       4   13046   12537   42081                                        
       8       4   19508   19643   42081                                        
       9       4   14612   14301   42081                                        
      10       4   17262   17518   42081                                        
      11       4   14540   15115   42081                                        
      12       4   15585   15958   42081                                        
      13       4   19179   18798   42081                                        
      14       4   18415   18775   42081                                        
      15       4   19681   19752   42081                                        
      16       4   15121   14917   42081                                        
      17       4   19116   19428   42081                                        
      18       4   16463   17020   42081                                        
      19       4   14240   13888   42081                                        
      20       4   12302   12396   42081                                        
$ ... 52 like lines cut
*ELEMENT_SHELL
$#   eid     pid      n1      n2      n3      n4      n5      n6      n7      n8
      73       5   13841   13242   42082                                        
      74       5    6813    7495   42082                                        
      75       5   14383   14218   42082                                        
      76       5    7868    8075   42082                                        
      77       5   14171   14161   42082                                        
      78       5   10762   11176   42082                                        
      79       5    8595    9104   42082                                        
      80       5    5986    6337   42082                                        
      81       5    5660    5986   42082                                        
      82       5    6337    6813   42082                                        
      83       5   14218   14406   42082                                        
      84       5    8075    8595   42082                                        
      85       5    9104    9744   42082                                        
      86       5   10387   10762   42082                                        
      87       5    7495    7868   42082                                        
      88       5   14159   14383   42082                                        
      89       5   14161   13968   42082                                        
      90       5   11176   11730   42082                                        
      91       5   14406   14171   42082                                        
      92       5   12810   13114   42082                                        
$ ... 33 like lines cut
*ELEMENT_SHELL
$#   eid     pid      n1      n2      n3      n4      n5      n6      n7      n8
     126       6    1812    1752   42083                                        
     127       6    1915    1812   42083                                        
     128       6    4392    4554   42083                                        
     129       6    4726    4905   42083                                        
     130       6    4554    4726   42083                                        
     131       6     905     804   42083                                        
     132       6    1015     905   42083                                        
     133       6    4905    5050   42083                                        
     134       6    5131    4575   42083                                        
     135       6    5382    5258   42083                                        
     136       6    2994    2886   42083                                        
     137       6    3724    3515   42083                                        
     138       6    4039    3784   42083                                        
     139       6    3342    3146   42083                                        
     140       6    5134    5431   42083                                        
     141       6    4375    4146   42083                                        
     142       6    4456    4355   42083                                        
     143       6    5558    5501   42083                                        
     144       6    3481    3437   42083                                        
     145       6    3515    3481   42083                                        
$ ... 75 like lines cut
*ELEMENT_SHELL
$#   eid     pid      n1      n2      n3      n4      n5      n6      n7      n8
     221       7   18137   18602   42084                                        
     222       7   17830   18137   42084                                        
     223       7   15985   16352   42084                                        
     224       7   19279   19762   42084                                        
     225       7   12950   13493   42084                                        
     226       7   20407   20813   42084                                        
     227       7   13824   14499   42084                                        
     228       7   19521   19299   42084                                        
     229       7   14122   13554   42084                                        
     230       7    5740    5768   42084                                        
     231       7    6634    7142   42084                                        
     232       7    9494    9924   42084                                        
     233       7   11650   12133   42084                                        
     234       7    8846    8298   42084                                        
     235       7    7620    7126   42084                                        
     236       7    6324    5953   42084                                        
     237       7   20604   20573   42084                                        
     238       7   20637   20626   42084                                        
     239       7   12221   11364   42084                                        
     240       7    6017    6222   42084                                        
$ ... 51 like lines cut
*END