*KEYWORD
$$ penalty with 0.25, 25 $$
*PART
$#                                                             heading
spring                                                                
$#     pid     secid       mid     eosid      hgid      grav    adpopt      tmid
         9         4         6                                                  
*SECTION_DISCRETE
$#   secid       dro        kd        v0        cl        fd
         4         0       0.0       0.0       0.0       0.0
$#     cdl       tdl
       0.0       0.0
*MAT_SPRING_ELASTIC
$#     mid         k
         6      0.05
*DEFINE_SD_ORIENTATION
$#     vid       iop        xt        yt        zt      nid1      nid2
       296         00.097716810.101076480.99006814                    
       297         0-0.0671742-0.37172710.92590851                    
       298         0-0.2105741-0.28189230.93605304                    
       299         0-0.7883112-0.1307963-0.6012136                    
       300         0-0.8098559-0.1034789-0.5774301                    
       301         0-0.7903413-0.1134866-0.6020642                    
       302         0-0.7058942-0.0485291-0.7066529                    
       303         0-0.7394207 -0.068783-0.6697208                    
       304         0-0.7413111-0.0385004-0.6700563                    
       305         0-0.7907065-0.1510654-0.5932643                    
       306         0-0.8148348-0.1463486-0.5609157                    
       307         0-0.8045182-0.1250864-0.5806063                    
       308         0-0.32300570.22785307-0.9185588                    
       309         0-0.5838124-0.2756944-0.7636463                    
       310         0-0.6910494-0.3461781-0.6345168                    
       311         0-0.23369760.18562491-0.9544259                    
       312         0-0.4031284-0.1450877 -0.903569                    
       313         0-0.6151962-0.3816784-0.6898226                    
       314         0-0.34791650.21048009-0.9135929                    
       315         0-0.40156970.18134795-0.8976941                    
$ ... 6876 like lines cut
*ELEMENT_DISCRETE
$#   eid     pid      n1      n2     vid               s      pf          offset
     583       9   15929       0     2960.03082022601979                        
     584       9   15928       0     2970.02520690460526                        
     585       9   15648       0     2980.03730617077436                        
     586       9   24804       0     2990.00152508708515                        
     587       9   11234       0     300 0.0024193693783                        
     588       9   19309       0     3010.00166060882148                        
     589       9   26284       0     3020.00180237708506                        
     590       9   20508       0     3030.00199227758948                        
     591       9   26286       0     3040.00276736386656                        
     592       9   11508       0     3050.00132510282032                        
     593       9   11507       0     3060.00173184693468                        
     594       9   24805       0     307 0.0017940116917                        
     595       9   24197       0     3080.00067022338433                        
     596       9   20056       0     3090.00079720821657                        
     597       9   22076       0     3100.00051229579428                        
     598       9   24213       0     3110.00029004982624                        
     599       9   14220       0     3120.00036055285913                        
     600       9   24203       0     3130.00031099148929                        
     601       9   21008       0     3140.00126878188974                        
     602       9    1460       0     3150.00163370412511                        
$ ... 6876 like lines cut
*PART
$#                                                             heading
damper                                                                
$#     pid     secid       mid     eosid      hgid      grav    adpopt      tmid
        10         5         7                                                  
*SECTION_DISCRETE
$#   secid       dro        kd        v0        cl        fd
         5         0       0.0       0.0       0.0       0.0
$#     cdl       tdl
       0.0       0.0
*MAT_DAMPER_VISCOUS
$#     mid        dc
         7     0.005
*DEFINE_SD_ORIENTATION
$#     vid       iop        xt        yt        zt      nid1      nid2
      7192         00.78301048-0.5800868 0.2244855                    
      7193         00.78628224-0.54938440.28273141                    
      7194         00.86144501-0.50517210.05209444                    
      7195         00.097716810.101076480.99006814                    
      7196         0-0.0671742-0.37172710.92590851                    
      7197         0-0.2105741-0.28189230.93605304                    
      7198         00.85480922-0.50830330.10454135                    
      7199         00.28684041-0.2291832  -0.93016                    
      7200         00.36828688-0.2945585-0.8818163                    
      7201         00.46666259-0.2134567-0.8582904                    
      7202         0-0.1150859-0.6353776-0.7635775                    
      7203         00.28540581-0.4240443-0.8594941                    
      7204         00.19899119 -0.438385-0.8764822                    
      7205         0 0.7387349-0.3936839-0.5470683                    
      7206         00.76117271 -0.417675-0.4961489                    
      7207         00.70375544-0.4086845-0.5811243                    
      7208         00.56390333-0.6878385-0.4570461                    
      7209         0  0.574292-0.6433088-0.5063028                    
      7210         00.55517817-0.6573697 -0.509551                    
      7211         00.08950682-0.9959748 0.0047508                    
$ ... 9934 like lines cut
*ELEMENT_DISCRETE
$#   eid     pid      n1      n2     vid               s      pf          offset
    7479      10   18830       0    7192 1.3944561049613                        
    7480      10   18831       0    7193 1.0183832054464                        
    7481      10   21675       0    71940.53211930004767                        
    7482      10   15929       0    7195 1.1367862417891                        
    7483      10   15928       0    7196 1.2488424172865                        
    7484      10   15648       0    7197 1.2354252324944                        
    7485      10   26849       0    7198  1.740896466022                        
    7486      10   24493       0    7199 1.7956602759412                        
    7487      10   26577       0    7200  1.596607073418                        
    7488      10   26208       0    7201 1.6640002949746                        
    7489      10   26610       0    7202 1.5761860701011                        
    7490      10    3941       0    7203 1.6259685634609                        
    7491      10    3939       0    7204 1.4510047236464                        
    7492      10   19834       0    7205 1.3820331624619                        
    7493      10   23748       0    7206 0.6926020554288                        
    7494      10   19833       0    7207 1.3243294872418                        
    7495      10   26938       0    7208 1.0468665063104                        
    7496      10   26920       0    72090.80458468783158                        
    7497      10   26937       0    7210 0.4566438616283                        
    7498      10   18175       0    7211 1.4864994262758                        
$ ... 9934 like lines cut
*END