*KEYWORD
$$ penalty with 0.25, 25 $$
*PART
$#                                                             heading
spring                                                                
$#     pid     secid       mid     eosid      hgid      grav    adpopt      tmid
         9         4         6                                                  
*SECTION_DISCRETE
$#   secid       dro        kd        v0        cl        fd
         4         0       0.0       0.0       0.0       0.0
$#     cdl       tdl
       0.0       0.0
*MAT_SPRING_ELASTIC
$#     mid         k
         6      0.05
*DEFINE_SD_ORIENTATION
$#     vid       iop        xt        yt        zt      nid1      nid2
       296         00.097716810.101076480.99006814         0         0
       297         0-0.0671742-0.37172710.92590851         0         0
       298         0-0.2105741-0.28189230.93605304         0         0
       299         0-0.7883112-0.1307963-0.6012136         0         0
       300         0-0.8098559-0.1034789-0.5774301         0         0
       301         0-0.7903413-0.1134866-0.6020642         0         0
       302         0-0.7058942-0.0485291-0.7066529         0         0
       303         0-0.7394207 -0.068783-0.6697208         0         0
       304         0-0.7413111-0.0385004-0.6700563         0         0
       305         0-0.7907065-0.1510654-0.5932643         0         0
       306         0-0.8148348-0.1463486-0.5609157         0         0
       307         0-0.8045182-0.1250864-0.5806063         0         0
       308         0-0.32300570.22785307-0.9185588         0         0
       309         0-0.5838124-0.2756944-0.7636463         0         0
       310         0-0.6910494-0.3461781-0.6345168         0         0
       311         0-0.23369760.18562491-0.9544259         0         0
       312         0-0.4031284-0.1450877 -0.903569         0         0
       313         0-0.6151962-0.3816784-0.6898226         0         0
       314         0-0.34791650.21048009-0.9135929         0         0
       315         0-0.40156970.18134795-0.8976941         0         0
$ ... 6876 like lines cut
*ELEMENT_DISCRETE
$#   eid     pid      n1      n2     vid               s      pf          offset
     583       9   15929       0     2960.03082022629678       0             0.0
     584       9   15928       0     2970.02520690299571       0             0.0
     585       9   15648       0     298 0.0373061709106       0             0.0
     586       9   24804       0     2990.00152508704923       0             0.0
     587       9   11234       0     3000.00241936929524       0             0.0
     588       9   19309       0     3010.00166060891934       0             0.0
     589       9   26284       0     3020.00180237716995       0             0.0
     590       9   20508       0     3030.00199227756821       0             0.0
     591       9   26286       0     3040.00276736379601       0             0.0
     592       9   11508       0     3050.00132510287222       0             0.0
     593       9   11507       0     3060.00173184694722       0             0.0
     594       9   24805       0     3070.00179401168134       0             0.0
     595       9   24197       0     3080.00067022338044       0             0.0
     596       9   20056       0     3090.00079720822396       0             0.0
     597       9   22076       0     3100.00051229581004       0             0.0
     598       9   24213       0     3110.00029004982207       0             0.0
     599       9   14220       0     3120.00036055283272       0             0.0
     600       9   24203       0     3130.00031099148327       0             0.0
     601       9   21008       0     3140.00126878183801       0             0.0
     602       9    1460       0     3150.00163370417431       0             0.0
$ ... 6876 like lines cut
*PART
$#                                                             heading
damper                                                                
$#     pid     secid       mid     eosid      hgid      grav    adpopt      tmid
        10         5         7                                                  
*SECTION_DISCRETE
$#   secid       dro        kd        v0        cl        fd
         5         0       0.0       0.0       0.0       0.0
$#     cdl       tdl
       0.0       0.0
*MAT_DAMPER_VISCOUS
$#     mid        dc
         7     0.005
*DEFINE_SD_ORIENTATION
$#     vid       iop        xt        yt        zt      nid1      nid2
      7192         00.78301048-0.5800868 0.2244855         0         0
      7193         00.78628224-0.54938440.28273141         0         0
      7194         00.86144501-0.50517210.05209444         0         0
      7195         00.097716810.101076480.99006814         0         0
      7196         0-0.0671742-0.37172710.92590851         0         0
      7197         0-0.2105741-0.28189230.93605304         0         0
      7198         00.85480922-0.50830330.10454135         0         0
      7199         00.28684041-0.2291832  -0.93016         0         0
      7200         00.36828688-0.2945585-0.8818163         0         0
      7201         00.46666259-0.2134567-0.8582904         0         0
      7202         0-0.1150859-0.6353776-0.7635775         0         0
      7203         00.28540581-0.4240443-0.8594941         0         0
      7204         00.19899119 -0.438385-0.8764822         0         0
      7205         0 0.7387349-0.3936839-0.5470683         0         0
      7206         00.76117271 -0.417675-0.4961489         0         0
      7207         00.70375544-0.4086845-0.5811243         0         0
      7208         00.56390333-0.6878385-0.4570461         0         0
      7209         0  0.574292-0.6433088-0.5063028         0         0
      7210         00.55517817-0.6573697 -0.509551         0         0
      7211         00.08950682-0.9959748 0.0047508         0         0
$ ... 9934 like lines cut
*ELEMENT_DISCRETE
$#   eid     pid      n1      n2     vid               s      pf          offset
    7479      10   18830       0    7192 1.3944561481476       0             0.0
    7480      10   18831       0    7193 1.0183832645416       0             0.0
    7481      10   21675       0    7194 0.5321192741394       0             0.0
    7482      10   15929       0    7195 1.1367862224579       0             0.0
    7483      10   15928       0    7196 1.2488423585892       0             0.0
    7484      10   15648       0    7197 1.2354252338409       0             0.0
    7485      10   26849       0    7198 1.7408964633942       0             0.0
    7486      10   24493       0    7199 1.7956602573395       0             0.0
    7487      10   26577       0    7200 1.5966070890427       0             0.0
    7488      10   26208       0    7201 1.6640002727509       0             0.0
    7489      10   26610       0    7202 1.5761860609055       0             0.0
    7490      10    3941       0    7203 1.6259685754776       0             0.0
    7491      10    3939       0    7204  1.451004743576       0             0.0
    7492      10   19834       0    7205 1.3820331096649       0             0.0
    7493      10   23748       0    72060.69260203838348       0             0.0
    7494      10   19833       0    7207   1.32432949543       0             0.0
    7495      10   26938       0    7208 1.0468665361404       0             0.0
    7496      10   26920       0    72090.80458468198776       0             0.0
    7497      10   26937       0    72100.45664384961128       0             0.0
    7498      10   18175       0    7211 1.4864994287491       0             0.0
$ ... 9934 like lines cut
*END