"""Example to pre-process data from Strocchi2020 and Rodero2021."""
import os
import pathlib

import ansys.heart.preprocessor.models as models
from ansys.heart.simulator.settings.settings import SimulationSettings
from ansys.heart.simulator.simulator import EPSimulator, MechanicsSimulator
from ansys.heart.simulator.support import run_preprocessor

# import ansys.heart.writer.dynawriter as writers

if __name__ == "__main__":
    """BiVentricle example.

    1. Extracts simulation mesh
    2. Use simulator class to launch
        1. EP-simulation
            - compute fibers
            - compute purkinje network
            - launch main simulation
        2. Mechanics-simulation
            - compute fibers
            - compute stress-free configuration
            - launch main simulation

    Please change paths
    """
    # extract simulation mesh(es)
    path_to_case = os.path.join(
        pathlib.Path(__file__).parents[3], "downloads\\Strocchi2020\\01\\01.case"
    )
    workdir = os.path.join(pathlib.Path(path_to_case).parent, "BiVentricle")

    path_to_model = os.path.join(workdir, "heart_model.pickle")

    use_preprocessor = False

    if use_preprocessor:
        model = run_preprocessor(
            model_type=models.BiVentricle,
            database="Strocchi2020",
            path_original_mesh=path_to_case,
            work_directory=workdir,
            path_to_model=path_to_model,
            mesh_size=2.0,
        )

    # specify LS-DYNA path
    lsdyna_path = (
        r"D:\New folder\mppdyna_d_winx64_msmpi\ls-dyna_mpp_d_Dev_98335-ga3a63fdc77_winx64_ifort190_msmpi.exe"
    )

    # BASIC examples with defaults:

    # Load model (e.g. when you skip the preprocessor):
    model: models.BiVentricle = models.HeartModel.load_model(path_to_model)
    ## instantiate simulator.
    simulator = EPSimulator(model, lsdyna_path, "smp", num_cpus=1,
                                  simulation_directory= os.path.join(model.info.workdir, "simulation-EP"))
    # load default settings
    simulator.settings.load_defaults()
    # compute the fiber orientation
    simulator.compute_fibers()
    # visualize computed fibers
    simulator.model.plot_fibers(n_seed_points=2000)
    # compute purkinje network
    simulator.compute_purkinje()
    # visualize purkinje
    simulator.model.plot_purkinje()
    # start simulation
    simulator.simulate()
print("done")