*KEYWORD
*MAT_077_H
$#     mid        ro        pr         n        nv         g      sigf       ref
         5     1e-06     0.499         0                                     0.0
$#     c10       c01       c11       c20       c02       c30    therml
    1000.0                                                            
*SECTION_SHELL
$#   secid    elform      shrf       nip     propt   qr_irid     icomp     setyp
         3         4    0.8333         3       1.0         0         0         1
$#      t1        t2        t3        t4      nloc     marea      idof    edgset
       5.0       0.0       0.0       0.0       0.0       0.0       0.0         0
*PART
$#                                                             heading
mitral-valve                                                          
$#     pid     secid       mid     eosid      hgid      grav    adpopt      tmid
         5         3         5                                                  
*PART
$#                                                             heading
aortic-valve                                                          
$#     pid     secid       mid     eosid      hgid      grav    adpopt      tmid
         6         3         5                                                  
*PART
$#                                                             heading
tricuspid-valve                                                       
$#     pid     secid       mid     eosid      hgid      grav    adpopt      tmid
         7         3         5                                                  
*PART
$#                                                             heading
pulmonary-valve                                                       
$#     pid     secid       mid     eosid      hgid      grav    adpopt      tmid
         8         3         5                                                  
*ELEMENT_SHELL
$#   eid     pid      n1      n2      n3      n4      n5      n6      n7      n8
       1       5       1       2      90                                        
       2       5       1      90     181                                        
       3       5       1     181      21                                        
       4       5       1      21      22                                        
       5       5       1      22     104                                        
       6       5       1     104     105                                        
       7       5       1     105    3779                                        
       8       5       1    3779      81                                        
       9       5       1      81      82                                        
      10       5       1      82      54                                        
      11       5       1      54      55                                        
      12       5       1      55     140                                        
      13       5       1     140      39                                        
      14       5       1      39      40                                        
      15       5       1      40      36                                        
      16       5       1      36      37                                        
      17       5       1      37     148                                        
      18       5       1     148       5                                        
      19       5       1       5     495                                        
      20       5       1     495     444                                        
$ ... 35 like lines cut
*ELEMENT_SHELL
$#   eid     pid      n1      n2      n3      n4      n5      n6      n7      n8
      56       6      66      67      87                                        
      57       6      66      87      88                                        
      58       6      66      88     168                                        
      59       6      66     168      95                                        
      60       6      66      95      96                                        
      61       6      66      96     177                                        
      62       6      66     177     119                                        
      63       6      66     119     120                                        
      64       6      66     120     107                                        
      65       6      66     107     108                                        
      66       6      66     108      75                                        
      67       6      66      75      76                                        
      68       6      66      76      69                                        
      69       6      66      69      70                                        
      70       6      66      70      78                                        
      71       6      66      78      79                                        
      72       6      66      79     163                                        
      73       6      66     163     101                                        
      74       6      66     101     102                                        
      75       6      66     102     116                                        
$ ... 15 like lines cut
*ELEMENT_SHELL
$#   eid     pid      n1      n2      n3      n4      n5      n6      n7      n8
      91       7    8874    8875   10950                                        
      92       7    8874   10950   10932                                        
      93       7    8874   10932   10933                                        
      94       7    8874   10933   10952                                        
      95       7    8874   10952   10826                                        
      96       7    8874   10826   10824                                        
      97       7    8874   10824   11043                                        
      98       7    8874   11043   11063                                        
      99       7    8874   11063   10985                                        
     100       7    8874   10985   10983                                        
     101       7    8874   10983   10984                                        
     102       7    8874   10984   11334                                        
     103       7    8874   11334   11335                                        
     104       7    8874   11335   11398                                        
     105       7    8874   11398   11399                                        
     106       7    8874   11399   11300                                        
     107       7    8874   11300   11379                                        
     108       7    8874   11379   11380                                        
     109       7    8874   11380   11314                                        
     110       7    8874   11314   11315                                        
$ ... 63 like lines cut
*ELEMENT_SHELL
$#   eid     pid      n1      n2      n3      n4      n5      n6      n7      n8
     174       8    9012    9013    9003                                        
     175       8    9012    9003    9004                                        
     176       8    9012    9004    9111                                        
     177       8    9012    9111    9006                                        
     178       8    9012    9006    9007                                        
     179       8    9012    9007    9024                                        
     180       8    9012    9024    9025                                        
     181       8    9012    9025    9000                                        
     182       8    9012    9000    9001                                        
     183       8    9012    9001    9045                                        
     184       8    9012    9045    9046                                        
     185       8    9012    9046    9048                                        
     186       8    9012    9048    9049                                        
     187       8    9012    9049    9042                                        
     188       8    9012    9042    9043                                        
     189       8    9012    9043    9119                                        
     190       8    9012    9119    9021                                        
     191       8    9012    9021    9022                                        
     192       8    9012    9022    9036                                        
     193       8    9012    9036    9037                                        
$ ... 27 like lines cut
*END