*KEYWORD
*PART
$#                                                             heading
Pericardium                                                           
$#     pid     secid       mid     eosid      hgid      grav    adpopt      tmid
         4         2         4                                                  
*SECTION_DISCRETE
$#   secid       dro        kd        v0        cl        fd
         2         0       0.0       0.0       0.0       0.0
$#     cdl       tdl
       0.0       0.0
*MAT_SPRING_ELASTIC
$#     mid         k
         4      50.0
*DEFINE_SD_ORIENTATION
$#     vid       iop        xt        yt        zt      nid1      nid2
         1         0-0.52001830.498694140.69345879                    
*ELEMENT_DISCRETE
$#   eid     pid      n1      n2     vid               s      pf          offset
       1       4    4834       0       10.09451833273715                        
       2       4    4836       0       10.10337376975841                        
       3       4    4835       0       1 0.1421552106568                        
       4       4    4838       0       10.13308062342478                        
       5       4    4840       0       10.15992695666609                        
       6       4    4839       0       10.11578185707094                        
       7       4    4844       0       10.01115610311982                        
       8       4    4846       0       10.01166646614467                        
       9       4    4845       0       10.01190986923109                        
      10       4    4848       0       10.01502115715942                        
      11       4    4850       0       10.01376127298349                        
      12       4    4849       0       10.01153846208065                        
      13       4    4854       0       10.00526283747699                        
      14       4    4856       0       10.00348059018421                        
      15       4    4855       0       10.00720209649531                        
      16       4    4866       0       10.13976332723937                        
      17       4    4868       0       1 0.1756117744336                        
      18       4    4867       0       10.09960323678351                        
      19       4    4874       0       1 0.0236388687245                        
      20       4    4876       0       10.03583755544281                        
$ ... 1613 like lines cut
*END