*KEYWORD
*CONTROL_TERMINATION
$--------1---------2---------3---------4---------5---------6---------7---------8
$   endtim
        1.
*CONTROL_TIMESTEP
$--------1---------2---------3---------4---------5---------6---------7---------8
$   dtinit                                   dt2ms      lctm
       &dt                                     &dt         3 
*DEFINE_CURVE
3
0.,&dt
100.,&dt
*DATABASE_BINARY_D3PLOT
$--------1---------2---------3---------4---------5---------6---------7---------8
$       dt      LCDT               NPLTC
  &dt_plot         
*PART
$--------1---------2---------3---------4---------5---------6---------7---------8
cellule
$      pid     secid     matid     eosid      hgid      grav    adpopt      tmid
         1         1         1                                                                                              
*SECTION_SOLID
$--------1---------2---------3---------4---------5---------6---------7---------8
$      sid    elform
         1         1
*MAT_ELASTIC
$--------1---------2---------3---------4---------5---------6---------7---------8
$    matid        ro         E        pr
         1      &rho        &E        &v
*END
