*KEYWORD
*PART
$#                                                             heading
SupportSpring                                                         
$#     pid     secid       mid     eosid      hgid      grav    adpopt      tmid
        19         3         9                                                  
*SECTION_DISCRETE
$#   secid       dro        kd        v0        cl        fd
         3         0       0.0       0.0       0.0       0.0
$#     cdl       tdl
       0.0       0.0
*MAT_SPRING_ELASTIC
$#     mid         k
         9     0.002
$$ spring at right-inferior-pulmonary-vein$$
*DEFINE_SD_ORIENTATION
$#     vid       iop        xt        yt        zt      nid1      nid2
         1         00.85410699-0.51764440.05045333                    
*DEFINE_SD_ORIENTATION
$#     vid       iop        xt        yt        zt      nid1      nid2
         2         00.304523030.41866663-0.8555606                    
         3         00.363809830.52643746-0.7684439                    
         4         0 0.41875720.62543303-0.6583889                    
         5         00.464674120.71449623-0.5230422                    
         6         00.497589620.78363858-0.3719074                    
         7         00.516765490.83192426-0.2021273                    
         8         00.519386540.85436707-0.0171617                    
         9         00.502767070.846065330.17719686                    
        10         00.463870050.801525750.37733412                    
        11         00.405552880.723152980.55908553                    
        12         00.333132940.618641020.71155164                    
        13         00.249628740.492823270.83355307                    
        14         00.163815220.359598140.91861513                    
        15         00.076712180.221140110.97222029                    
        16         0-0.00530830.087224040.99617458                    
        17         0-0.0930412-0.0502602 0.9943929                    
        18         0-0.1717678-0.1888713 0.9668627                    
        19         0-0.2486662-0.3216372 0.9136272                    
        20         0-0.3180323-0.44362930.83788337                    
        21         0-0.3825422-0.56030680.73465486                    
$ ... 15 like lines cut
*ELEMENT_DISCRETE
$#   eid     pid      n1      n2     vid               s      pf          offset
       1      19    2636       0       1 1.7992875792101                        
       2      19    2599       0       1 1.2677519076705                        
       3      19    2600       0       1 1.2905524712469                        
       4      19    2626       0       1 1.3513400481634                        
       5      19    2627       0       1 1.3234969107087                        
       6      19    2686       0       1 1.5132118969644                        
       7      19    2470       0       1 1.6890065903181                        
       8      19    2471       0       1 1.7592297690806                        
       9      19    3730       0       1 1.8942774625916                        
      10      19    3972       0       1 1.9832524855418                        
      11      19    3778       0       1 1.9605541128012                        
      12      19    3779       0       1 1.8403447410853                        
      13      19    3831       0       1 1.8109531238104                        
      14      19    3832       0       1 2.2246752874631                        
      15      19    3939       0       1 1.7547950986957                        
      16      19    3851       0       1 1.4795370508777                        
      17      19    3852       0       1 1.3575208815315                        
      18      19    3955       0       1 2.1606797791529                        
      19      19    3797       0       1 1.9020089816191                        
      20      19    3798       0       1 1.8593413878227                        
$ ... 15 like lines cut
*ELEMENT_DISCRETE
$#   eid     pid      n1      n2     vid               s      pf          offset
      36      19    2636       0       2 3.5985751584201                        
      37      19    2599       0       3  2.535503815341                        
      38      19    2600       0       4 2.5811049424938                        
      39      19    2626       0       5 2.7026800963269                        
      40      19    2627       0       6 2.6469938214175                        
      41      19    2686       0       7 3.0264237939288                        
      42      19    2470       0       8 3.3780131806362                        
      43      19    2471       0       9 3.5184595381612                        
      44      19    3730       0      10 3.7885549251832                        
      45      19    3972       0      11 3.9665049710837                        
      46      19    3778       0      12 3.9211082256025                        
      47      19    3779       0      13 3.6806894821705                        
      48      19    3831       0      14 3.6219062476208                        
      49      19    3832       0      15 4.4493505749262                        
      50      19    3939       0      16 3.5095901973915                        
      51      19    3851       0      17 2.9590741017554                        
      52      19    3852       0      18  2.715041763063                        
      53      19    3955       0      19 4.3213595583058                        
      54      19    3797       0      20 3.8040179632381                        
      55      19    3798       0      21 3.7186827756454                        
$ ... 15 like lines cut
$$ spring at right-superior-pulmonary-vein$$
*DEFINE_SD_ORIENTATION
$#     vid       iop        xt        yt        zt      nid1      nid2
        37         00.756974940.33511661-0.5609686                    
*DEFINE_SD_ORIENTATION
$#     vid       iop        xt        yt        zt      nid1      nid2
        38         00.16429607 -0.928121-0.3340632                    
        39         0 0.0005127-0.8568995-0.5154832                    
        40         0-0.1442324-0.7476607-0.6482287                    
        41         0-0.2738447-0.6098789-0.7436779                    
        42         0-0.3776088 -0.466086-0.8001096                    
        43         0-0.4728107-0.2957145-0.8300621                    
        44         0-0.5521201-0.1166128-0.8255694                    
        45         0-0.60613250.07338581-0.7919709                    
        46         0-0.63810070.27548037 -0.718984                    
        47         0-0.7052776 0.4156084-0.5743284                    
        48         0-0.62325090.61215532-0.4866459                    
        49         0-0.63122070.71373515-0.3035499                    
        50         0-0.47445850.86759605-0.1488833                    
        51         0-0.33368440.938730820.08625066                    
        52         0   -0.17990.938300760.29534333                    
        53         0 -0.0400710.887968890.45815453                    
        54         00.098120550.797861710.59480169                    
        55         0 0.22870970.674960910.70151239                    
        56         00.343063690.53215145 0.7740298                    
        57         00.448469120.361618940.81737824                    
$ ... 8 like lines cut
*ELEMENT_DISCRETE
$#   eid     pid      n1      n2     vid               s      pf          offset
      71      19    3825       0      37 1.8025890754254                        
      72      19    3826       0      37 1.7732742009437                        
      73      19    3803       0      37 1.7482976093927                        
      74      19    3804       0      37  1.772898892426                        
      75      19    3886       0      37 1.5291245959947                        
      76      19    3887       0      37 1.7830002848332                        
      77      19    3866       0      37 1.7854452863892                        
      78      19    3867       0      37 1.8205638290443                        
      79      19    3892       0      37 2.1041683345309                        
      80      19    3893       0      37 1.2274500196896                        
      81      19    3988       0      37 1.4520849853919                        
      82      19    3963       0      37 1.2057622173203                        
      83      19    3810       0      37   1.73603622907                        
      84      19    3811       0      37 1.8728381827837                        
      85      19    3807       0      37 1.8186310358914                        
      86      19    3808       0      37 1.8600122704234                        
      87      19    3854       0      37 1.8578125864552                        
      88      19    3855       0      37 1.8124776200434                        
      89      19    3967       0      37 1.8650798743144                        
      90      19    3775       0      37 1.9577381313418                        
$ ... 8 like lines cut
*ELEMENT_DISCRETE
$#   eid     pid      n1      n2     vid               s      pf          offset
      99      19    3825       0      38 3.6051781508508                        
     100      19    3826       0      39 3.5465484018873                        
     101      19    3803       0      40 3.4965952187854                        
     102      19    3804       0      41 3.5457977848521                        
     103      19    3886       0      42 3.0582491919893                        
     104      19    3887       0      43 3.5660005696664                        
     105      19    3866       0      44 3.5708905727783                        
     106      19    3867       0      45 3.6411276580887                        
     107      19    3892       0      46 4.2083366690618                        
     108      19    3893       0      47 2.4549000393791                        
     109      19    3988       0      48 2.9041699707838                        
     110      19    3963       0      49 2.4115244346406                        
     111      19    3810       0      50 3.4720724581401                        
     112      19    3811       0      51 3.7456763655673                        
     113      19    3807       0      52 3.6372620717828                        
     114      19    3808       0      53 3.7200245408469                        
     115      19    3854       0      54 3.7156251729103                        
     116      19    3855       0      55 3.6249552400868                        
     117      19    3967       0      56 3.7301597486288                        
     118      19    3775       0      57 3.9154762626836                        
$ ... 8 like lines cut
$$ spring at superior-vena-cava$$
*DEFINE_SD_ORIENTATION
$#     vid       iop        xt        yt        zt      nid1      nid2
        66         0-0.2840514-0.5780919-0.7649344                    
*DEFINE_SD_ORIENTATION
$#     vid       iop        xt        yt        zt      nid1      nid2
        67         00.815727330.26741862-0.5129095                    
        68         00.85188604 0.2102008-0.4796934                    
        69         00.906175470.09521457-0.4120439                    
        70         00.94217051  -0.02467-0.3342247                    
        71         00.95807346-0.1579336-0.2390653                    
        72         00.94025911-0.3232703-0.1068135                    
        73         00.87374725-0.48474050.03990522                    
        74         00.73071468 -0.6474280.21654786                    
        75         00.53857753-0.75644710.37110919                    
        76         00.36512502-0.8027077 0.4715337                    
        77         00.23553248-0.81481680.52971504                    
        78         00.11518578-0.81178670.57248112                    
        79         0-0.0162835-0.79406190.60761877                    
        80         0 -0.150911-0.76051290.63154252                    
        81         0-0.2874536-0.71001110.64284891                    
        82         0-0.4176521-0.64460850.64034875                    
        83         0 -0.538746-0.56576530.62422943                    
        84         0-0.6461004-0.47574540.59684212                    
        85         0 -0.740576-0.37587180.55701674                    
        86         0-0.8256595-0.26630780.49735966                    
$ ... 18 like lines cut
*ELEMENT_DISCRETE
$#   eid     pid      n1      n2     vid               s      pf          offset
     127      19   18098       0      660.90315178819052                        
     128      19   17940       0      66 1.3577936564928                        
     129      19   21556       0      66 1.9127452059537                        
     130      19   21608       0      66 1.5810249994712                        
     131      19   21609       0      66 1.5053668542252                        
     132      19   21600       0      66 1.2278933769026                        
     133      19   21601       0      66 1.6248025129187                        
     134      19   21595       0      66 2.0968289254435                        
     135      19   21596       0      66 1.7970149234468                        
     136      19   21605       0      66 1.7507260986814                        
     137      19   21606       0      66 1.3906784176433                        
     138      19   21666       0      66 1.7459308555902                        
     139      19   21627       0      66 1.7471603041995                        
     140      19   21628       0      66 2.1029963606505                        
     141      19   21620       0      66 1.6805024584529                        
     142      19   21621       0      66 1.6494233471537                        
     143      19   21611       0      66 1.6388670677108                        
     144      19   21612       0      66 1.9222709818257                        
     145      19   21624       0      66 1.3914616143565                        
     146      19   21625       0      66 1.5745927905451                        
$ ... 18 like lines cut
*ELEMENT_DISCRETE
$#   eid     pid      n1      n2     vid               s      pf          offset
     165      19   18098       0      67  1.806303576381                        
     166      19   17940       0      68 2.7155873129857                        
     167      19   21556       0      69 3.8254904119075                        
     168      19   21608       0      70 3.1620499989425                        
     169      19   21609       0      71 3.0107337084504                        
     170      19   21600       0      72 2.4557867538051                        
     171      19   21601       0      73 3.2496050258373                        
     172      19   21595       0      74 4.1936578508869                        
     173      19   21596       0      75 3.5940298468936                        
     174      19   21605       0      76 3.5014521973627                        
     175      19   21606       0      77 2.7813568352867                        
     176      19   21666       0      78 3.4918617111804                        
     177      19   21627       0      79  3.494320608399                        
     178      19   21628       0      80  4.205992721301                        
     179      19   21620       0      81 3.3610049169059                        
     180      19   21621       0      82 3.2988466943074                        
     181      19   21611       0      83 3.2777341354217                        
     182      19   21612       0      84 3.8445419636514                        
     183      19   21624       0      85  2.782923228713                        
     184      19   21625       0      86 3.1491855810902                        
$ ... 18 like lines cut
*END