*KEYWORD
*MAT_NULL
$#     mid        ro        pc        mu     terod     cerod        ym        pr
         9     0.001                                                            
*SECTION_SHELL
$#   secid    elform      shrf       nip     propt   qr_irid     icomp     setyp
         2         4    0.8333         3       1.0         0         0         1
$#      t1        t2        t3        t4      nloc     marea      idof    edgset
       1.0       0.0       0.0       0.0       0.0       0.0       0.0         0
*PART
$#                                                             heading
mitral-valve                                                          
$#     pid     secid       mid     eosid      hgid      grav    adpopt      tmid
         9         2         9                                                  
*PART
$#                                                             heading
aortic-valve                                                          
$#     pid     secid       mid     eosid      hgid      grav    adpopt      tmid
        10         2         9                                                  
*PART
$#                                                             heading
pulmonary-valve                                                       
$#     pid     secid       mid     eosid      hgid      grav    adpopt      tmid
        11         2         9                                                  
*PART
$#                                                             heading
tricuspid-valve                                                       
$#     pid     secid       mid     eosid      hgid      grav    adpopt      tmid
        12         2         9                                                  
*PART
$#                                                             heading
left-inferior-pulmonary-vein                                          
$#     pid     secid       mid     eosid      hgid      grav    adpopt      tmid
        13         2         9                                                  
*PART
$#                                                             heading
left-superior-pulmonary-vein                                          
$#     pid     secid       mid     eosid      hgid      grav    adpopt      tmid
        14         2         9                                                  
*PART
$#                                                             heading
left-atrium-appendage                                                 
$#     pid     secid       mid     eosid      hgid      grav    adpopt      tmid
        15         2         9                                                  
*PART
$#                                                             heading
right-inferior-pulmonary-vein                                         
$#     pid     secid       mid     eosid      hgid      grav    adpopt      tmid
        16         2         9                                                  
*PART
$#                                                             heading
right-superior-pulmonary-vein                                         
$#     pid     secid       mid     eosid      hgid      grav    adpopt      tmid
        17         2         9                                                  
*PART
$#                                                             heading
inferior-vena-cava                                                    
$#     pid     secid       mid     eosid      hgid      grav    adpopt      tmid
        18         2         9                                                  
*PART
$#                                                             heading
superior-vena-cava                                                    
$#     pid     secid       mid     eosid      hgid      grav    adpopt      tmid
        19         2         9                                                  
*ELEMENT_SHELL
$#   eid     pid      n1      n2      n3      n4      n5      n6      n7      n8
       1       9   69654    7864    7862                                        
       2       9   69654   11558    7864                                        
       3       9   69654   11440   11558                                        
       4       9   69654   11439   11440                                        
       5       9   69654   11579   11439                                        
       6       9   69654   11409   11579                                        
       7       9   69654   11408   11409                                        
       8       9   69654   11547   11408                                        
       9       9   69654   11421   11547                                        
      10       9   69654   11420   11421                                        
      11       9   69654   11473   11420                                        
      12       9   69654   11472   11473                                        
      13       9   69654   11418   11472                                        
      14       9   69654   11417   11418                                        
      15       9   69654   11504   11417                                        
      16       9   69654   11503   11504                                        
      17       9   69654   11509   11503                                        
      18       9   69654   11508   11509                                        
      19       9   69654   11501   11508                                        
      20       9   69654   11500   11501                                        
$ ... 46 like lines cut
*ELEMENT_SHELL
$#   eid     pid      n1      n2      n3      n4      n5      n6      n7      n8
      67      10   69655   11423   11424                                        
      68      10   69655   11428   11423                                        
      69      10   69655   11427   11428                                        
      70      10   69655   11461   11427                                        
      71      10   69655   11460   11461                                        
      72      10   69655   11560   11460                                        
      73      10   69655   11434   11560                                        
      74      10   69655   11433   11434                                        
      75      10   69655   11450   11433                                        
      76      10   69655   11449   11450                                        
      77      10   69655   11572   11449                                        
      78      10   69655   11470   11572                                        
      79      10   69655   11469   11470                                        
      80      10   69655   11454   11469                                        
      81      10   69655   11453   11454                                        
      82      10   69655   11564   11453                                        
      83      10   69655   11431   11564                                        
      84      10   69655   11430   11431                                        
      85      10   69655   11552   11430                                        
      86      10   69655   11467   11552                                        
$ ... 26 like lines cut
*ELEMENT_SHELL
$#   eid     pid      n1      n2      n3      n4      n5      n6      n7      n8
     113      11   69656   17162   28519                                        
     114      11   69656   28537   17162                                        
     115      11   69656   28401   28537                                        
     116      11   69656   28400   28401                                        
     117      11   69656   28431   28400                                        
     118      11   69656   28430   28431                                        
     119      11   69656   28416   28430                                        
     120      11   69656   28415   28416                                        
     121      11   69656   28500   28415                                        
     122      11   69656   28410   28500                                        
     123      11   69656   28409   28410                                        
     124      11   69656   28469   28409                                        
     125      11   69656   28535   28469                                        
     126      11   69656   28534   28535                                        
     127      11   69656   28441   28534                                        
     128      11   69656   28440   28441                                        
     129      11   69656   28318   28440                                        
     130      11   69656   28317   28318                                        
     131      11   69656   30025   28317                                        
     132      11   69656   30098   30025                                        
$ ... 49 like lines cut
*ELEMENT_SHELL
$#   eid     pid      n1      n2      n3      n4      n5      n6      n7      n8
     182      12   69657   28329   28330                                        
     183      12   69657   28450   28329                                        
     184      12   69657   28449   28450                                        
     185      12   69657   28413   28449                                        
     186      12   69657   28412   28413                                        
     187      12   69657   28407   28412                                        
     188      12   69657   28406   28407                                        
     189      12   69657   28502   28406                                        
     190      12   69657   28398   28502                                        
     191      12   69657   28397   28398                                        
     192      12   69657   28419   28397                                        
     193      12   69657   28418   28419                                        
     194      12   69657   28428   28418                                        
     195      12   69657   28427   28428                                        
     196      12   69657   28438   28427                                        
     197      12   69657   28437   28438                                        
     198      12   69657   28339   28437                                        
     199      12   69657   31110   28339                                        
     200      12   69657   31209   31110                                        
     201      12   69657   31208   31209                                        
$ ... 64 like lines cut
*ELEMENT_SHELL
$#   eid     pid      n1      n2      n3      n4      n5      n6      n7      n8
     266      13   69658    2417    2418                                        
     267      13   69658    2418    2423                                        
     268      13   69658    2423    2576                                        
     269      13   69658    2576    2577                                        
     270      13   69658    2577    2591                                        
     271      13   69658    2591    2592                                        
     272      13   69658    2592    2603                                        
     273      13   69658    2603    2604                                        
     274      13   69658    2604    2615                                        
     275      13   69658    2615    2616                                        
     276      13   69658    2616    2597                                        
     277      13   69658    2597    2598                                        
     278      13   69658    2598    2630                                        
     279      13   69658    2630    2631                                        
     280      13   69658    2631    2546                                        
     281      13   69658    2546    2547                                        
     282      13   69658    2547    2618                                        
     283      13   69658    2618    2619                                        
     284      13   69658    2619    2570                                        
     285      13   69658    2570    2571                                        
$ ... 10 like lines cut
*ELEMENT_SHELL
$#   eid     pid      n1      n2      n3      n4      n5      n6      n7      n8
     296      14   69659    2422    2420                                        
     297      14   69659    3883    2422                                        
     298      14   69659    3774    3883                                        
     299      14   69659    3773    3774                                        
     300      14   69659    3856    3773                                        
     301      14   69659    3855    3856                                        
     302      14   69659    3964    3855                                        
     303      14   69659    4004    3964                                        
     304      14   69659    4087    4004                                        
     305      14   69659    3999    4087                                        
     306      14   69659    3876    3999                                        
     307      14   69659    3875    3876                                        
     308      14   69659    3869    3875                                        
     309      14   69659    3868    3869                                        
     310      14   69659    3945    3868                                        
     311      14   69659    3977    3945                                        
     312      14   69659    3865    3977                                        
     313      14   69659    3864    3865                                        
     314      14   69659    3873    3864                                        
     315      14   69659    3872    3873                                        
$ ... 6 like lines cut
*ELEMENT_SHELL
$#   eid     pid      n1      n2      n3      n4      n5      n6      n7      n8
     322      15   69660    2595    2429                                        
     323      15   69660    2594    2595                                        
     324      15   69660    2541    2594                                        
     325      15   69660    2540    2541                                        
     326      15   69660    2647    2540                                        
     327      15   69660    2646    2647                                        
     328      15   69660    2728    2646                                        
     329      15   69660    2628    2728                                        
     330      15   69660    2627    2628                                        
     331      15   69660    2601    2627                                        
     332      15   69660    2600    2601                                        
     333      15   69660    2433    2600                                        
     334      15   69660    2432    2433                                        
     335      15   69660    3723    2432                                        
     336      15   69660    3784    3723                                        
     337      15   69660    3783    3784                                        
     338      15   69660    3751    3783                                        
     339      15   69660    3750    3751                                        
     340      15   69660    3765    3750                                        
     341      15   69660    3764    3765                                        
$ ... 24 like lines cut
*ELEMENT_SHELL
$#   eid     pid      n1      n2      n3      n4      n5      n6      n7      n8
     366      16   69661    2454    2621                                        
     367      16   69661    3721    2454                                        
     368      16   69661    3853    3721                                        
     369      16   69661    3852    3853                                        
     370      16   69661    3840    3852                                        
     371      16   69661    3839    3840                                        
     372      16   69661    3827    3839                                        
     373      16   69661    3826    3827                                        
     374      16   69661    3850    3826                                        
     375      16   69661    3849    3850                                        
     376      16   69661    3833    3849                                        
     377      16   69661    3832    3833                                        
     378      16   69661    3836    3832                                        
     379      16   69661    3835    3836                                        
     380      16   69661    3790    3835                                        
     381      16   69661    3789    3790                                        
     382      16   69661    3943    3789                                        
     383      16   69661    3844    3943                                        
     384      16   69661    3843    3844                                        
     385      16   69661    3927    3843                                        
$ ... 15 like lines cut
*ELEMENT_SHELL
$#   eid     pid      n1      n2      n3      n4      n5      n6      n7      n8
     401      17   69662    3753    3754                                        
     402      17   69662    3970    3753                                        
     403      17   69662    3809    3970                                        
     404      17   69662    3808    3809                                        
     405      17   69662    3862    3808                                        
     406      17   69662    3861    3862                                        
     407      17   69662    3768    3861                                        
     408      17   69662    3767    3768                                        
     409      17   69662    3956    3767                                        
     410      17   69662    3847    3956                                        
     411      17   69662    3846    3847                                        
     412      17   69662    3800    3846                                        
     413      17   69662    3799    3800                                        
     414      17   69662    3803    3799                                        
     415      17   69662    3802    3803                                        
     416      17   69662    3951    3802                                        
     417      17   69662    3978    3951                                        
     418      17   69662    3981    3978                                        
     419      17   69662    3954    3981                                        
     420      17   69662    3859    3954                                        
$ ... 8 like lines cut
*ELEMENT_SHELL
$#   eid     pid      n1      n2      n3      n4      n5      n6      n7      n8
     429      18   69663   17955   17956                                        
     430      18   69663   17956   19496                                        
     431      18   69663   19496   19593                                        
     432      18   69663   19593   19594                                        
     433      18   69663   19594   19677                                        
     434      18   69663   19677   19605                                        
     435      18   69663   19605   19606                                        
     436      18   69663   19606   19614                                        
     437      18   69663   19614   19615                                        
     438      18   69663   19615   19688                                        
     439      18   69663   19688   19599                                        
     440      18   69663   19599   19600                                        
     441      18   69663   19600   19618                                        
     442      18   69663   19618   19619                                        
     443      18   69663   19619   19707                                        
     444      18   69663   19707   19705                                        
     445      18   69663   19705   19646                                        
     446      18   69663   19646   19624                                        
     447      18   69663   19624   19625                                        
     448      18   69663   19625   19611                                        
$ ... 13 like lines cut
*ELEMENT_SHELL
$#   eid     pid      n1      n2      n3      n4      n5      n6      n7      n8
     462      19   69664   18123   17965                                        
     463      19   69664   17965   21581                                        
     464      19   69664   21581   21633                                        
     465      19   69664   21633   21634                                        
     466      19   69664   21634   21625                                        
     467      19   69664   21625   21626                                        
     468      19   69664   21626   21620                                        
     469      19   69664   21620   21621                                        
     470      19   69664   21621   21630                                        
     471      19   69664   21630   21631                                        
     472      19   69664   21631   21691                                        
     473      19   69664   21691   21652                                        
     474      19   69664   21652   21653                                        
     475      19   69664   21653   21645                                        
     476      19   69664   21645   21646                                        
     477      19   69664   21646   21636                                        
     478      19   69664   21636   21637                                        
     479      19   69664   21637   21649                                        
     480      19   69664   21649   21650                                        
     481      19   69664   21650   21696                                        
$ ... 18 like lines cut
*END