*KEYWORD
*MAT_NULL
$#     mid        ro        pc        mu     terod     cerod        ym        pr
         9     0.001                                                            
*SECTION_SHELL
$#   secid    elform      shrf       nip     propt   qr_irid     icomp     setyp
         2         4    0.8333         3       1.0         0         0         1
$#      t1        t2        t3        t4      nloc     marea      idof    edgset
       1.0       0.0       0.0       0.0       0.0       0.0       0.0         0
*CONSTRAINED_LINEAR_GLOBAL
$#    licd
         1
$#     nid       dof      coef
     69755         1       1.0
      7862         1  -0.12500
     11466         1  -0.12500
      9616         1  -0.12500
      9775         1  -0.12500
      9684         1  -0.12500
     11407         1  -0.12500
     11501         1  -0.12500
     11432         1  -0.12500
*CONSTRAINED_LINEAR_GLOBAL
$#    licd
         2
$#     nid       dof      coef
     69755         2       1.0
      7862         2  -0.12500
     11466         2  -0.12500
      9616         2  -0.12500
      9775         2  -0.12500
      9684         2  -0.12500
     11407         2  -0.12500
     11501         2  -0.12500
     11432         2  -0.12500
*CONSTRAINED_LINEAR_GLOBAL
$#    licd
         3
$#     nid       dof      coef
     69755         3       1.0
      7862         3  -0.12500
     11466         3  -0.12500
      9616         3  -0.12500
      9775         3  -0.12500
      9684         3  -0.12500
     11407         3  -0.12500
     11501         3  -0.12500
     11432         3  -0.12500
*PART
$#                                                             heading
mitral-valve                                                          
$#     pid     secid       mid     eosid      hgid      grav    adpopt      tmid
         9         2         9                                                  
*CONSTRAINED_LINEAR_GLOBAL
$#    licd
         4
$#     nid       dof      coef
     69756         1       1.0
     11453         1  -0.12500
     11513         1  -0.12500
     11571         1  -0.12500
     11491         1  -0.12500
     11462         1  -0.12500
     11448         1  -0.12500
     11446         1  -0.12500
     11423         1  -0.12500
*CONSTRAINED_LINEAR_GLOBAL
$#    licd
         5
$#     nid       dof      coef
     69756         2       1.0
     11453         2  -0.12500
     11513         2  -0.12500
     11571         2  -0.12500
     11491         2  -0.12500
     11462         2  -0.12500
     11448         2  -0.12500
     11446         2  -0.12500
     11423         2  -0.12500
*CONSTRAINED_LINEAR_GLOBAL
$#    licd
         6
$#     nid       dof      coef
     69756         3       1.0
     11453         3  -0.12500
     11513         3  -0.12500
     11571         3  -0.12500
     11491         3  -0.12500
     11462         3  -0.12500
     11448         3  -0.12500
     11446         3  -0.12500
     11423         3  -0.12500
*PART
$#                                                             heading
aortic-valve                                                          
$#     pid     secid       mid     eosid      hgid      grav    adpopt      tmid
        10         2         9                                                  
*CONSTRAINED_LINEAR_GLOBAL
$#    licd
         7
$#     nid       dof      coef
     69757         1       1.0
     28453         1  -0.12500
     28536         1  -0.12500
     30152         1  -0.12500
     30073         1  -0.12500
     30105         1  -0.12500
     30136         1  -0.12500
     28532         1  -0.12500
     28429         1  -0.12500
*CONSTRAINED_LINEAR_GLOBAL
$#    licd
         8
$#     nid       dof      coef
     69757         2       1.0
     28453         2  -0.12500
     28536         2  -0.12500
     30152         2  -0.12500
     30073         2  -0.12500
     30105         2  -0.12500
     30136         2  -0.12500
     28532         2  -0.12500
     28429         2  -0.12500
*CONSTRAINED_LINEAR_GLOBAL
$#    licd
         9
$#     nid       dof      coef
     69757         3       1.0
     28453         3  -0.12500
     28536         3  -0.12500
     30152         3  -0.12500
     30073         3  -0.12500
     30105         3  -0.12500
     30136         3  -0.12500
     28532         3  -0.12500
     28429         3  -0.12500
*PART
$#                                                             heading
pulmonary-valve                                                       
$#     pid     secid       mid     eosid      hgid      grav    adpopt      tmid
        11         2         9                                                  
*CONSTRAINED_LINEAR_GLOBAL
$#    licd
        10
$#     nid       dof      coef
     69758         1       1.0
     28939         1  -0.14286
     29018         1  -0.14286
     29033         1  -0.14286
     29002         1  -0.14286
     31179         1  -0.14286
     31196         1  -0.14286
     28417         1  -0.14286
*CONSTRAINED_LINEAR_GLOBAL
$#    licd
        11
$#     nid       dof      coef
     69758         2       1.0
     28939         2  -0.14286
     29018         2  -0.14286
     29033         2  -0.14286
     29002         2  -0.14286
     31179         2  -0.14286
     31196         2  -0.14286
     28417         2  -0.14286
*CONSTRAINED_LINEAR_GLOBAL
$#    licd
        12
$#     nid       dof      coef
     69758         3       1.0
     28939         3  -0.14286
     29018         3  -0.14286
     29033         3  -0.14286
     29002         3  -0.14286
     31179         3  -0.14286
     31196         3  -0.14286
     28417         3  -0.14286
*PART
$#                                                             heading
tricuspid-valve                                                       
$#     pid     secid       mid     eosid      hgid      grav    adpopt      tmid
        12         2         9                                                  
*CONSTRAINED_LINEAR_GLOBAL
$#    licd
        13
$#     nid       dof      coef
     69759         1       1.0
      2431         1  -0.12500
      2591         1  -0.12500
      2618         1  -0.12500
      2612         1  -0.12500
      2561         1  -0.12500
      2585         1  -0.12500
      2624         1  -0.12500
      2621         1  -0.12500
*CONSTRAINED_LINEAR_GLOBAL
$#    licd
        14
$#     nid       dof      coef
     69759         2       1.0
      2431         2  -0.12500
      2591         2  -0.12500
      2618         2  -0.12500
      2612         2  -0.12500
      2561         2  -0.12500
      2585         2  -0.12500
      2624         2  -0.12500
      2621         2  -0.12500
*CONSTRAINED_LINEAR_GLOBAL
$#    licd
        15
$#     nid       dof      coef
     69759         3       1.0
      2431         3  -0.12500
      2591         3  -0.12500
      2618         3  -0.12500
      2612         3  -0.12500
      2561         3  -0.12500
      2585         3  -0.12500
      2624         3  -0.12500
      2621         3  -0.12500
*PART
$#                                                             heading
left-inferior-pulmonary-vein                                          
$#     pid     secid       mid     eosid      hgid      grav    adpopt      tmid
        13         2         9                                                  
*CONSTRAINED_LINEAR_GLOBAL
$#    licd
        16
$#     nid       dof      coef
     69760         1       1.0
      2530         1  -0.11111
      3989         1  -0.11111
      3881         1  -0.11111
      3987         1  -0.11111
      3877         1  -0.11111
      4006         1  -0.11111
      3975         1  -0.11111
      3781         1  -0.11111
      2436         1  -0.11111
*CONSTRAINED_LINEAR_GLOBAL
$#    licd
        17
$#     nid       dof      coef
     69760         2       1.0
      2530         2  -0.11111
      3989         2  -0.11111
      3881         2  -0.11111
      3987         2  -0.11111
      3877         2  -0.11111
      4006         2  -0.11111
      3975         2  -0.11111
      3781         2  -0.11111
      2436         2  -0.11111
*CONSTRAINED_LINEAR_GLOBAL
$#    licd
        18
$#     nid       dof      coef
     69760         3       1.0
      2530         3  -0.11111
      3989         3  -0.11111
      3881         3  -0.11111
      3987         3  -0.11111
      3877         3  -0.11111
      4006         3  -0.11111
      3975         3  -0.11111
      3781         3  -0.11111
      2436         3  -0.11111
*PART
$#                                                             heading
left-superior-pulmonary-vein                                          
$#     pid     secid       mid     eosid      hgid      grav    adpopt      tmid
        14         2         9                                                  
*CONSTRAINED_LINEAR_GLOBAL
$#    licd
        19
$#     nid       dof      coef
     69761         1       1.0
      3732         1  -0.12500
      3986         1  -0.12500
      3794         1  -0.12500
      3770         1  -0.12500
      3773         1  -0.12500
      2446         1  -0.12500
      2742         1  -0.12500
      2609         1  -0.12500
*CONSTRAINED_LINEAR_GLOBAL
$#    licd
        20
$#     nid       dof      coef
     69761         2       1.0
      3732         2  -0.12500
      3986         2  -0.12500
      3794         2  -0.12500
      3770         2  -0.12500
      3773         2  -0.12500
      2446         2  -0.12500
      2742         2  -0.12500
      2609         2  -0.12500
*CONSTRAINED_LINEAR_GLOBAL
$#    licd
        21
$#     nid       dof      coef
     69761         3       1.0
      3732         3  -0.12500
      3986         3  -0.12500
      3794         3  -0.12500
      3770         3  -0.12500
      3773         3  -0.12500
      2446         3  -0.12500
      2742         3  -0.12500
      2609         3  -0.12500
*PART
$#                                                             heading
left-atrium-appendage                                                 
$#     pid     secid       mid     eosid      hgid      grav    adpopt      tmid
        15         2         9                                                  
*CONSTRAINED_LINEAR_GLOBAL
$#    licd
        22
$#     nid       dof      coef
     69762         1       1.0
      2636         1  -0.14286
      2686         1  -0.14286
      3778         1  -0.14286
      3851         1  -0.14286
      3843         1  -0.14286
      3858         1  -0.14286
      3861         1  -0.14286
*CONSTRAINED_LINEAR_GLOBAL
$#    licd
        23
$#     nid       dof      coef
     69762         2       1.0
      2636         2  -0.14286
      2686         2  -0.14286
      3778         2  -0.14286
      3851         2  -0.14286
      3843         2  -0.14286
      3858         2  -0.14286
      3861         2  -0.14286
*CONSTRAINED_LINEAR_GLOBAL
$#    licd
        24
$#     nid       dof      coef
     69762         3       1.0
      2636         3  -0.14286
      2686         3  -0.14286
      3778         3  -0.14286
      3851         3  -0.14286
      3843         3  -0.14286
      3858         3  -0.14286
      3861         3  -0.14286
*PART
$#                                                             heading
right-inferior-pulmonary-vein                                         
$#     pid     secid       mid     eosid      hgid      grav    adpopt      tmid
        16         2         9                                                  
*CONSTRAINED_LINEAR_GLOBAL
$#    licd
        25
$#     nid       dof      coef
     69763         1       1.0
      3825         1  -0.14286
      3886         1  -0.14286
      3892         1  -0.14286
      3810         1  -0.14286
      3854         1  -0.14286
      3776         1  -0.14286
      3817         1  -0.14286
*CONSTRAINED_LINEAR_GLOBAL
$#    licd
        26
$#     nid       dof      coef
     69763         2       1.0
      3825         2  -0.14286
      3886         2  -0.14286
      3892         2  -0.14286
      3810         2  -0.14286
      3854         2  -0.14286
      3776         2  -0.14286
      3817         2  -0.14286
*CONSTRAINED_LINEAR_GLOBAL
$#    licd
        27
$#     nid       dof      coef
     69763         3       1.0
      3825         3  -0.14286
      3886         3  -0.14286
      3892         3  -0.14286
      3810         3  -0.14286
      3854         3  -0.14286
      3776         3  -0.14286
      3817         3  -0.14286
*PART
$#                                                             heading
right-superior-pulmonary-vein                                         
$#     pid     secid       mid     eosid      hgid      grav    adpopt      tmid
        17         2         9                                                  
*CONSTRAINED_LINEAR_GLOBAL
$#    licd
        28
$#     nid       dof      coef
     69764         1       1.0
     17930         1  -0.11111
     19569         1  -0.11111
     19589         1  -0.11111
     19575         1  -0.11111
     19680         1  -0.11111
     19586         1  -0.11111
     19562         1  -0.11111
     17989         1  -0.11111
     18147         1  -0.11111
*CONSTRAINED_LINEAR_GLOBAL
$#    licd
        29
$#     nid       dof      coef
     69764         2       1.0
     17930         2  -0.11111
     19569         2  -0.11111
     19589         2  -0.11111
     19575         2  -0.11111
     19680         2  -0.11111
     19586         2  -0.11111
     19562         2  -0.11111
     17989         2  -0.11111
     18147         2  -0.11111
*CONSTRAINED_LINEAR_GLOBAL
$#    licd
        30
$#     nid       dof      coef
     69764         3       1.0
     17930         3  -0.11111
     19569         3  -0.11111
     19589         3  -0.11111
     19575         3  -0.11111
     19680         3  -0.11111
     19586         3  -0.11111
     19562         3  -0.11111
     17989         3  -0.11111
     18147         3  -0.11111
*PART
$#                                                             heading
inferior-vena-cava                                                    
$#     pid     secid       mid     eosid      hgid      grav    adpopt      tmid
        18         2         9                                                  
*CONSTRAINED_LINEAR_GLOBAL
$#    licd
        31
$#     nid       dof      coef
     69765         1       1.0
     18098         1  -0.12500
     21600         1  -0.12500
     21606         1  -0.12500
     21621         1  -0.12500
     21671         1  -0.12500
     21555         1  -0.12500
     18165         1  -0.12500
     18040         1  -0.12500
*CONSTRAINED_LINEAR_GLOBAL
$#    licd
        32
$#     nid       dof      coef
     69765         2       1.0
     18098         2  -0.12500
     21600         2  -0.12500
     21606         2  -0.12500
     21621         2  -0.12500
     21671         2  -0.12500
     21555         2  -0.12500
     18165         2  -0.12500
     18040         2  -0.12500
*CONSTRAINED_LINEAR_GLOBAL
$#    licd
        33
$#     nid       dof      coef
     69765         3       1.0
     18098         3  -0.12500
     21600         3  -0.12500
     21606         3  -0.12500
     21621         3  -0.12500
     21671         3  -0.12500
     21555         3  -0.12500
     18165         3  -0.12500
     18040         3  -0.12500
*PART
$#                                                             heading
superior-vena-cava                                                    
$#     pid     secid       mid     eosid      hgid      grav    adpopt      tmid
        19         2         9                                                  
*ELEMENT_SHELL
$#   eid     pid      n1      n2      n3      n4      n5      n6      n7      n8
       1       9   69755    7862    7863                                        
       2       9   69755    7863   11607                                        
       3       9   69755   11607   11712                                        
       4       9   69755   11712   11621                                        
       5       9   69755   11621   11622                                        
       6       9   69755   11622   11486                                        
       7       9   69755   11486   11487                                        
       8       9   69755   11487   11488                                        
       9       9   69755   11488   11466                                        
      10       9   69755   11466   11467                                        
      11       9   69755   11467   11550                                        
      12       9   69755   11550   11409                                        
      13       9   69755   11409   11410                                        
      14       9   69755   11410   11396                                        
      15       9   69755   11396   11397                                        
      16       9   69755   11397   11518                                        
      17       9   69755   11518    9615                                        
      18       9   69755    9615    9616                                        
      19       9   69755    9616    9780                                        
      20       9   69755    9780    9698                                        
$ ... 49 like lines cut
*ELEMENT_SHELL
$#   eid     pid      n1      n2      n3      n4      n5      n6      n7      n8
      70      10   69756   11419   11420                                        
      71      10   69756   11424   11419                                        
      72      10   69756   11423   11424                                        
      73      10   69756   11457   11423                                        
      74      10   69756   11456   11457                                        
      75      10   69756   11554   11456                                        
      76      10   69756   11430   11554                                        
      77      10   69756   11429   11430                                        
      78      10   69756   11446   11429                                        
      79      10   69756   11445   11446                                        
      80      10   69756   11566   11445                                        
      81      10   69756   11470   11566                                        
      82      10   69756   11469   11470                                        
      83      10   69756   11449   11469                                        
      84      10   69756   11448   11449                                        
      85      10   69756   11585   11448                                        
      86      10   69756   11427   11585                                        
      87      10   69756   11426   11427                                        
      88      10   69756   11546   11426                                        
      89      10   69756   11463   11546                                        
$ ... 26 like lines cut
*ELEMENT_SHELL
$#   eid     pid      n1      n2      n3      n4      n5      n6      n7      n8
     116      11   69757   17137   28517                                        
     117      11   69757   28535   17137                                        
     118      11   69757   28399   28535                                        
     119      11   69757   28398   28399                                        
     120      11   69757   28429   28398                                        
     121      11   69757   28428   28429                                        
     122      11   69757   28414   28428                                        
     123      11   69757   28413   28414                                        
     124      11   69757   28498   28413                                        
     125      11   69757   28408   28498                                        
     126      11   69757   28407   28408                                        
     127      11   69757   28467   28407                                        
     128      11   69757   28533   28467                                        
     129      11   69757   28532   28533                                        
     130      11   69757   28439   28532                                        
     131      11   69757   28438   28439                                        
     132      11   69757   28316   28438                                        
     133      11   69757   28315   28316                                        
     134      11   69757   30023   28315                                        
     135      11   69757   30096   30023                                        
$ ... 49 like lines cut
*ELEMENT_SHELL
$#   eid     pid      n1      n2      n3      n4      n5      n6      n7      n8
     185      12   69758   28327   28328                                        
     186      12   69758   28448   28327                                        
     187      12   69758   28447   28448                                        
     188      12   69758   28411   28447                                        
     189      12   69758   28410   28411                                        
     190      12   69758   28405   28410                                        
     191      12   69758   28404   28405                                        
     192      12   69758   28500   28404                                        
     193      12   69758   28396   28500                                        
     194      12   69758   28395   28396                                        
     195      12   69758   28417   28395                                        
     196      12   69758   28416   28417                                        
     197      12   69758   28426   28416                                        
     198      12   69758   28425   28426                                        
     199      12   69758   28436   28425                                        
     200      12   69758   28435   28436                                        
     201      12   69758   28337   28435                                        
     202      12   69758   31108   28337                                        
     203      12   69758   31207   31108                                        
     204      12   69758   31206   31207                                        
$ ... 64 like lines cut
*ELEMENT_SHELL
$#   eid     pid      n1      n2      n3      n4      n5      n6      n7      n8
     269      13   69759    2431    2432                                        
     270      13   69759    2432    2437                                        
     271      13   69759    2437    2590                                        
     272      13   69759    2590    2591                                        
     273      13   69759    2591    2605                                        
     274      13   69759    2605    2606                                        
     275      13   69759    2606    2617                                        
     276      13   69759    2617    2618                                        
     277      13   69759    2618    2629                                        
     278      13   69759    2629    2630                                        
     279      13   69759    2630    2611                                        
     280      13   69759    2611    2612                                        
     281      13   69759    2612    2644                                        
     282      13   69759    2644    2645                                        
     283      13   69759    2645    2560                                        
     284      13   69759    2560    2561                                        
     285      13   69759    2561    2632                                        
     286      13   69759    2632    2633                                        
     287      13   69759    2633    2584                                        
     288      13   69759    2584    2585                                        
$ ... 10 like lines cut
*ELEMENT_SHELL
$#   eid     pid      n1      n2      n3      n4      n5      n6      n7      n8
     299      14   69760    2436    2434                                        
     300      14   69760    3894    2436                                        
     301      14   69760    3782    3894                                        
     302      14   69760    3781    3782                                        
     303      14   69760    3864    3781                                        
     304      14   69760    3863    3864                                        
     305      14   69760    3975    3863                                        
     306      14   69760    4026    3975                                        
     307      14   69760    4025    4026                                        
     308      14   69760    4006    4025                                        
     309      14   69760    3884    4006                                        
     310      14   69760    3883    3884                                        
     311      14   69760    3877    3883                                        
     312      14   69760    3876    3877                                        
     313      14   69760    3957    3876                                        
     314      14   69760    3987    3957                                        
     315      14   69760    3873    3987                                        
     316      14   69760    3872    3873                                        
     317      14   69760    3881    3872                                        
     318      14   69760    3880    3881                                        
$ ... 6 like lines cut
*ELEMENT_SHELL
$#   eid     pid      n1      n2      n3      n4      n5      n6      n7      n8
     325      15   69761    2609    2443                                        
     326      15   69761    2608    2609                                        
     327      15   69761    2555    2608                                        
     328      15   69761    2554    2555                                        
     329      15   69761    2661    2554                                        
     330      15   69761    2660    2661                                        
     331      15   69761    2742    2660                                        
     332      15   69761    2642    2742                                        
     333      15   69761    2641    2642                                        
     334      15   69761    2615    2641                                        
     335      15   69761    2614    2615                                        
     336      15   69761    2447    2614                                        
     337      15   69761    2446    2447                                        
     338      15   69761    3731    2446                                        
     339      15   69761    3792    3731                                        
     340      15   69761    3791    3792                                        
     341      15   69761    3759    3791                                        
     342      15   69761    3758    3759                                        
     343      15   69761    3773    3758                                        
     344      15   69761    3772    3773                                        
$ ... 24 like lines cut
*ELEMENT_SHELL
$#   eid     pid      n1      n2      n3      n4      n5      n6      n7      n8
     369      16   69762    2468    2635                                        
     370      16   69762    3729    2468                                        
     371      16   69762    3973    3729                                        
     372      16   69762    3861    3973                                        
     373      16   69762    3848    3861                                        
     374      16   69762    3847    3848                                        
     375      16   69762    3835    3847                                        
     376      16   69762    3834    3835                                        
     377      16   69762    3858    3834                                        
     378      16   69762    3857    3858                                        
     379      16   69762    3841    3857                                        
     380      16   69762    3840    3841                                        
     381      16   69762    3844    3840                                        
     382      16   69762    3843    3844                                        
     383      16   69762    3798    3843                                        
     384      16   69762    3797    3798                                        
     385      16   69762    3955    3797                                        
     386      16   69762    3852    3955                                        
     387      16   69762    3851    3852                                        
     388      16   69762    3939    3851                                        
$ ... 15 like lines cut
*ELEMENT_SHELL
$#   eid     pid      n1      n2      n3      n4      n5      n6      n7      n8
     404      17   69763    3761    3762                                        
     405      17   69763    3981    3761                                        
     406      17   69763    3817    3981                                        
     407      17   69763    3816    3817                                        
     408      17   69763    3870    3816                                        
     409      17   69763    3869    3870                                        
     410      17   69763    3776    3869                                        
     411      17   69763    3775    3776                                        
     412      17   69763    3967    3775                                        
     413      17   69763    3855    3967                                        
     414      17   69763    3854    3855                                        
     415      17   69763    3808    3854                                        
     416      17   69763    3807    3808                                        
     417      17   69763    3811    3807                                        
     418      17   69763    3810    3811                                        
     419      17   69763    3963    3810                                        
     420      17   69763    3988    3963                                        
     421      17   69763    3893    3988                                        
     422      17   69763    3892    3893                                        
     423      17   69763    3867    3892                                        
$ ... 8 like lines cut
*ELEMENT_SHELL
$#   eid     pid      n1      n2      n3      n4      n5      n6      n7      n8
     432      18   69764   17930   17931                                        
     433      18   69764   17931   19471                                        
     434      18   69764   19471   19568                                        
     435      18   69764   19568   19569                                        
     436      18   69764   19569   19652                                        
     437      18   69764   19652   19580                                        
     438      18   69764   19580   19581                                        
     439      18   69764   19581   19589                                        
     440      18   69764   19589   19590                                        
     441      18   69764   19590   19663                                        
     442      18   69764   19663   19574                                        
     443      18   69764   19574   19575                                        
     444      18   69764   19575   19593                                        
     445      18   69764   19593   19594                                        
     446      18   69764   19594   19682                                        
     447      18   69764   19682   19680                                        
     448      18   69764   19680   19621                                        
     449      18   69764   19621   19599                                        
     450      18   69764   19599   19600                                        
     451      18   69764   19600   19586                                        
$ ... 13 like lines cut
*ELEMENT_SHELL
$#   eid     pid      n1      n2      n3      n4      n5      n6      n7      n8
     465      19   69765   18098   17940                                        
     466      19   69765   17940   21556                                        
     467      19   69765   21556   21608                                        
     468      19   69765   21608   21609                                        
     469      19   69765   21609   21600                                        
     470      19   69765   21600   21601                                        
     471      19   69765   21601   21595                                        
     472      19   69765   21595   21596                                        
     473      19   69765   21596   21605                                        
     474      19   69765   21605   21606                                        
     475      19   69765   21606   21666                                        
     476      19   69765   21666   21627                                        
     477      19   69765   21627   21628                                        
     478      19   69765   21628   21620                                        
     479      19   69765   21620   21621                                        
     480      19   69765   21621   21611                                        
     481      19   69765   21611   21612                                        
     482      19   69765   21612   21624                                        
     483      19   69765   21624   21625                                        
     484      19   69765   21625   21671                                        
$ ... 18 like lines cut
*END