*KEYWORD
*PART
$#                                                             heading
SupportSpring                                                         
$#     pid     secid       mid     eosid      hgid      grav    adpopt      tmid
        21         3         9                                                  
*SECTION_DISCRETE
$#   secid       dro        kd        v0        cl        fd
         3         0       0.0       0.0       0.0       0.0
$#     cdl       tdl
       0.0       0.0
*MAT_SPRING_ELASTIC
$#     mid         k
         9     0.002
$$ spring at right-inferior-pulmonary-vein$$
*DEFINE_SD_ORIENTATION
$#     vid       iop        xt        yt        zt      nid1      nid2
         1         00.81942058-0.4977689 0.0371963                    
*DEFINE_SD_ORIENTATION
$#     vid       iop        xt        yt        zt      nid1      nid2
         2         0-0.5049643-0.8624599-0.0342641                    
         3         0-0.5390334-0.8358598-0.1038337                    
         4         00.430554550.65632049-0.6195694                    
         5         0 0.43925530.74393154-0.5036076                    
         6         00.504619870.71721284-0.4805877                    
         7         0-0.3080359-0.5617182-0.7678454                    
         8         0-0.2142588-0.4807619-0.8502712                    
         9         00.04216453-0.0712442-0.9965673                    
        10         00.104221950.08552218-0.9908702                    
        11         00.312215130.46448792-0.8287175                    
        12         00.376750580.56012027-0.7377834                    
        13         0-0.1306886-0.3512394-0.9271199                    
        14         0-0.0437902-0.2150496-0.9756209                    
        15         00.194119380.21322648 -0.957524                    
        16         00.254758640.34830606-0.9020981                    
        17         0-0.3631456-0.6830098-0.6337372                    
        18         00.52367383 0.7658335 -0.373182                    
        19         0-0.4318177-0.7647619-0.4781973                    
        20         0-0.2955911-0.34570220.89057054                    
        21         0-0.3058813-0.46278810.83202393                    
$ ... 21 like lines cut
*ELEMENT_DISCRETE
$#   eid     pid      n1      n2     vid               s      pf          offset
       1      21   44849       0       1  2.229177772399                        
       2      21   43592       0       1 2.6119772265025                        
       3      21   44464       0       1 3.2232555576977                        
       4      21   42027       0       1 2.1874332258535                        
       5      21   42025       0       1 1.9009762900017                        
       6      21   45146       0       1 3.2517813177447                        
       7      21   45047       0       1 3.3614979383193                        
       8      21   41441       0       1 3.9543288218775                        
       9      21   41573       0       1 3.9263529982142                        
      10      21   47893       0       1 3.5776296600413                        
      11      21   47782       0       1  3.502616729748                        
      12      21   43139       0       1 3.8125212768104                        
      13      21   43138       0       1  3.912638736746                        
      14      21   44409       0       1 3.9493126121277                        
      15      21   44493       0       1  3.848726205452                        
      16      21   44006       0       1 3.5072132768373                        
      17      21   43889       0       1 2.3292673185123                        
      18      21   41807       0       1 3.4683520491948                        
      19      21   44616       0       1 3.9356853297593                        
      20      21   44615       0       1 2.7462973690957                        
$ ... 21 like lines cut
*ELEMENT_DISCRETE
$#   eid     pid      n1      n2     vid               s      pf          offset
      42      21   44849       0       2 4.4583555447981                        
      43      21   43592       0       3 5.2239544530049                        
      44      21   44464       0       4 6.4465111153953                        
      45      21   42027       0       5 4.3748664517071                        
      46      21   42025       0       6 3.8019525800033                        
      47      21   45146       0       7 6.5035626354894                        
      48      21   45047       0       8 6.7229958766387                        
      49      21   41441       0       9 7.9086576437549                        
      50      21   41573       0      10 7.8527059964284                        
      51      21   47893       0      11 7.1552593200826                        
      52      21   47782       0      12 7.0052334594961                        
      53      21   43139       0      13 7.6250425536209                        
      54      21   43138       0      14 7.8252774734919                        
      55      21   44409       0      15 7.8986252242553                        
      56      21   44493       0      16  7.697452410904                        
      57      21   44006       0      17 7.0144265536746                        
      58      21   43889       0      18 4.6585346370246                        
      59      21   41807       0      19 6.9367040983897                        
      60      21   44616       0      20 7.8713706595187                        
      61      21   44615       0      21 5.4925947381914                        
$ ... 21 like lines cut
$$ spring at right-superior-pulmonary-vein$$
*DEFINE_SD_ORIENTATION
$#     vid       iop        xt        yt        zt      nid1      nid2
        43         00.754947070.32245883-0.5381421                    
*DEFINE_SD_ORIENTATION
$#     vid       iop        xt        yt        zt      nid1      nid2
        44         0-0.28330770.92806258 0.2417367                    
        45         0-0.08678060.938244850.33491153                    
        46         00.61792284-0.01839440.78602354                    
        47         00.62112707-0.17007110.76503398                    
        48         00.60844986-0.51487590.60389702                    
        49         00.60254175-0.65318680.45857439                    
        50         00.095223240.763005150.63934004                    
        51         00.230728260.683313210.69271028                    
        52         0-0.60102530.58580983-0.5436869                    
        53         0-0.59051890.72599383-0.3524492                    
        54         00.03587866-0.9069787-0.4196456                    
        55         0-0.0880186-0.8220685-0.5625443                    
        56         00.38193216 0.3756673 0.8443944                    
        57         00.48005269  0.2270740.84734102                    
        58         0-0.4878099 0.8582937-0.1592905                    
        59         0-0.34036880.93964462 0.0348861                    
        60         0-0.5278768-0.1669551-0.8327497                    
        61         0-0.5958569-0.0034651-0.8030831                    
        62         0-0.1897879-0.7227931-0.6644928                    
        63         0-0.2546669-0.6007647-0.7577774                    
$ ... 11 like lines cut
*ELEMENT_DISCRETE
$#   eid     pid      n1      n2     vid               s      pf          offset
      83      21   44053       0      43 2.2141145768183                        
      84      21   43404       0      43 2.4751338007623                        
      85      21   41435       0      43 2.7981857200717                        
      86      21   41437       0      43 1.8330921886694                        
      87      21   45158       0      43 2.2947007818614                        
      88      21   42960       0      43 2.0451830239069                        
      89      21   42028       0      43  2.540980860934                        
      90      21   43526       0      43 2.5714722197644                        
      91      21   43357       0      43 2.4031394624107                        
      92      21   41766       0      43 2.2183151128393                        
      93      21   44604       0      43 2.1495516132576                        
      94      21   43748       0      43 2.0025971714734                        
      95      21   44774       0      43 2.4534937568234                        
      96      21   43663       0      43 2.9828780065627                        
      97      21   43120       0      43  2.240996030251                        
      98      21   43621       0      43 2.1726189570417                        
      99      21   41350       0      43 3.0565091658862                        
     100      21   42501       0      43 2.8398575306676                        
     101      21   43098       0      43 2.1306764476374                        
     102      21   43427       0      43 2.3625577135083                        
$ ... 11 like lines cut
*ELEMENT_DISCRETE
$#   eid     pid      n1      n2     vid               s      pf          offset
     114      21   44053       0      44 4.4282291536366                        
     115      21   43404       0      45 4.9502676015246                        
     116      21   41435       0      46 5.5963714401434                        
     117      21   41437       0      47 3.6661843773388                        
     118      21   45158       0      48 4.5894015637228                        
     119      21   42960       0      49 4.0903660478137                        
     120      21   42028       0      50 5.0819617218681                        
     121      21   43526       0      51 5.1429444395289                        
     122      21   43357       0      52 4.8062789248214                        
     123      21   41766       0      53 4.4366302256787                        
     124      21   44604       0      54 4.2991032265152                        
     125      21   43748       0      55 4.0051943429468                        
     126      21   44774       0      56 4.9069875136469                        
     127      21   43663       0      57 5.9657560131254                        
     128      21   43120       0      58  4.481992060502                        
     129      21   43621       0      59 4.3452379140834                        
     130      21   41350       0      60 6.1130183317723                        
     131      21   42501       0      61 5.6797150613353                        
     132      21   43098       0      62 4.2613528952748                        
     133      21   43427       0      63 4.7251154270167                        
$ ... 11 like lines cut
$$ spring at superior-vena-cava$$
*DEFINE_SD_ORIENTATION
$#     vid       iop        xt        yt        zt      nid1      nid2
        75         0-0.2500944-0.5390176-0.7269081                    
*DEFINE_SD_ORIENTATION
$#     vid       iop        xt        yt        zt      nid1      nid2
        76         0-0.95008550.182550870.25300734                    
        77         0-0.9587354 0.24865930.13782233                    
        78         00.158951330.76679039-0.6219059                    
        79         00.308885370.68199274-0.6629297                    
        80         00.484809540.59970646-0.6366411                    
        81         00.615909020.51255524-0.5982836                    
        82         0-0.8673709-0.21033550.45102841                    
        83         0-0.9301157-0.07329690.35987824                    
        84         0-0.3345891-0.68862560.64330782                    
        85         0-0.4359414-0.6361873 0.6365696                    
        86         0-0.40367060.79039594-0.4607866                    
        87         0-0.24851530.82138793-0.5133829                    
        88         0-0.1192009 0.8051575-0.5809583                    
        89         00.019998290.79021952-0.6124975                    
        90         00.05644221-0.8030842 0.5931864                    
        91         0 -0.048204-0.7870525 0.6149998                    
        92         0-0.96028610.071746380.26963522                    
        93         0-0.91098290.404290070.08160724                    
        94         0-0.6003762-0.50463840.62039381                    
        95         0-0.5734212 0.7563508-0.3148358                    
$ ... 20 like lines cut
*ELEMENT_DISCRETE
$#   eid     pid      n1      n2     vid               s      pf          offset
     145      21   48770       0      75 1.4928728005775                        
     146      21   48769       0      75 1.5673692305916                        
     147      21   49310       0      75 3.8820297119827                        
     148      21   51019       0      75 5.0664869550267                        
     149      21   49943       0      75 5.1904011937267                        
     150      21   50172       0      75 4.0188935276519                        
     151      21   52986       0      75 3.3668401151737                        
     152      21   51277       0      75 3.1164911062157                        
     153      21   52086       0      75 2.5175909901344                        
     154      21   52945       0      75  3.599511526264                        
     155      21   53302       0      75  2.637688633172                        
     156      21   51313       0      75 2.7083120845651                        
     157      21   48986       0      75 3.0461196339977                        
     158      21   48684       0      75 3.2217665111709                        
     159      21   53483       0      75 2.3791774386192                        
     160      21   53436       0      75 3.1208969061399                        
     161      21   51547       0      75 2.2208784075847                        
     162      21   53821       0      75 1.9006279033926                        
     163      21   53215       0      75 3.8274398099211                        
     164      21   52058       0      75 2.6153596912042                        
$ ... 20 like lines cut
*ELEMENT_DISCRETE
$#   eid     pid      n1      n2     vid               s      pf          offset
     185      21   48770       0      76 2.9857456011549                        
     186      21   48769       0      77 3.1347384611832                        
     187      21   49310       0      78 7.7640594239655                        
     188      21   51019       0      79 10.132973910053                        
     189      21   49943       0      80 10.380802387453                        
     190      21   50172       0      81 8.0377870553038                        
     191      21   52986       0      82 6.7336802303474                        
     192      21   51277       0      83 6.2329822124314                        
     193      21   52086       0      84 5.0351819802688                        
     194      21   52945       0      85 7.1990230525279                        
     195      21   53302       0      86 5.2753772663441                        
     196      21   51313       0      87 5.4166241691302                        
     197      21   48986       0      88 6.0922392679953                        
     198      21   48684       0      89 6.4435330223417                        
     199      21   53483       0      90 4.7583548772384                        
     200      21   53436       0      91 6.2417938122798                        
     201      21   51547       0      92 4.4417568151694                        
     202      21   53821       0      93 3.8012558067851                        
     203      21   53215       0      94 7.6548796198422                        
     204      21   52058       0      95 5.2307193824084                        
$ ... 20 like lines cut
*END