*KEYWORD
*MAT_NULL
$#     mid        ro        pc        mu     terod     cerod        ym        pr
         8     0.001                                                            
*SECTION_SHELL
$#   secid    elform      shrf       nip     propt   qr/irid     icomp     setyp
         2         4    0.8333         3       1.0         0         0         1
$#      t1        t2        t3        t4      nloc     marea      idof    edgset
       1.0       0.0       0.0       0.0       0.0       0.0       0.0         0
*PART
$#                                                             heading
mitral-valve                                                          
$#     pid     secid       mid     eosid      hgid      grav    adpopt      tmid
         8         2         8                                                  
*CONSTRAINED_INTERPOLATION
$#    icid      dnid      ddof      cidd      ityp     idnsw       fgm
         2     61096       123                   1         0         0
$#    inid      idof    twghtx    twghty    twghtz    rwghtx    rwghty    rwghtz
         1       123       1.0       1.0       1.0       1.0       1.0       1.0
*PART
$#                                                             heading
aortic-valve                                                          
$#     pid     secid       mid     eosid      hgid      grav    adpopt      tmid
         9         2         8                                                  
*CONSTRAINED_INTERPOLATION
$#    icid      dnid      ddof      cidd      ityp     idnsw       fgm
         3     61097       123                   1         0         0
$#    inid      idof    twghtx    twghty    twghtz    rwghtx    rwghty    rwghtz
         2       123       1.0       1.0       1.0       1.0       1.0       1.0
*PART
$#                                                             heading
tricuspid-valve                                                       
$#     pid     secid       mid     eosid      hgid      grav    adpopt      tmid
        10         2         8                                                  
*CONSTRAINED_INTERPOLATION
$#    icid      dnid      ddof      cidd      ityp     idnsw       fgm
         4     61098       123                   1         0         0
$#    inid      idof    twghtx    twghty    twghtz    rwghtx    rwghty    rwghtz
         3       123       1.0       1.0       1.0       1.0       1.0       1.0
*PART
$#                                                             heading
pulmonary-valve                                                       
$#     pid     secid       mid     eosid      hgid      grav    adpopt      tmid
        11         2         8                                                  
*CONSTRAINED_INTERPOLATION
$#    icid      dnid      ddof      cidd      ityp     idnsw       fgm
         5     61099       123                   1         0         0
$#    inid      idof    twghtx    twghty    twghtz    rwghtx    rwghty    rwghtz
         4       123       1.0       1.0       1.0       1.0       1.0       1.0
*PART
$#                                                             heading
mitral-valve-atrium                                                   
$#     pid     secid       mid     eosid      hgid      grav    adpopt      tmid
        12         2         8                                                  
*CONSTRAINED_INTERPOLATION
$#    icid      dnid      ddof      cidd      ityp     idnsw       fgm
         6     61100       123                   1         0         0
$#    inid      idof    twghtx    twghty    twghtz    rwghtx    rwghty    rwghtz
         5       123       1.0       1.0       1.0       1.0       1.0       1.0
*PART
$#                                                             heading
left-atrium-appendage                                                 
$#     pid     secid       mid     eosid      hgid      grav    adpopt      tmid
        13         2         8                                                  
*CONSTRAINED_INTERPOLATION
$#    icid      dnid      ddof      cidd      ityp     idnsw       fgm
         7     61101       123                   1         0         0
$#    inid      idof    twghtx    twghty    twghtz    rwghtx    rwghty    rwghtz
         6       123       1.0       1.0       1.0       1.0       1.0       1.0
*PART
$#                                                             heading
right-inferior-pulmonary-vein                                         
$#     pid     secid       mid     eosid      hgid      grav    adpopt      tmid
        14         2         8                                                  
*CONSTRAINED_INTERPOLATION
$#    icid      dnid      ddof      cidd      ityp     idnsw       fgm
         8     61102       123                   1         0         0
$#    inid      idof    twghtx    twghty    twghtz    rwghtx    rwghty    rwghtz
         7       123       1.0       1.0       1.0       1.0       1.0       1.0
*PART
$#                                                             heading
left-inferior-pulmonary-vein                                          
$#     pid     secid       mid     eosid      hgid      grav    adpopt      tmid
        15         2         8                                                  
*CONSTRAINED_INTERPOLATION
$#    icid      dnid      ddof      cidd      ityp     idnsw       fgm
         9     61103       123                   1         0         0
$#    inid      idof    twghtx    twghty    twghtz    rwghtx    rwghty    rwghtz
         8       123       1.0       1.0       1.0       1.0       1.0       1.0
*PART
$#                                                             heading
left-superior-pulmonary-vein                                          
$#     pid     secid       mid     eosid      hgid      grav    adpopt      tmid
        16         2         8                                                  
*CONSTRAINED_INTERPOLATION
$#    icid      dnid      ddof      cidd      ityp     idnsw       fgm
        10     61104       123                   1         0         0
$#    inid      idof    twghtx    twghty    twghtz    rwghtx    rwghty    rwghtz
         9       123       1.0       1.0       1.0       1.0       1.0       1.0
*PART
$#                                                             heading
right-superior-pulmonary-vein                                         
$#     pid     secid       mid     eosid      hgid      grav    adpopt      tmid
        17         2         8                                                  
*CONSTRAINED_INTERPOLATION
$#    icid      dnid      ddof      cidd      ityp     idnsw       fgm
        11     61105       123                   1         0         0
$#    inid      idof    twghtx    twghty    twghtz    rwghtx    rwghty    rwghtz
        10       123       1.0       1.0       1.0       1.0       1.0       1.0
*PART
$#                                                             heading
tricuspid-valve-atrium                                                
$#     pid     secid       mid     eosid      hgid      grav    adpopt      tmid
        18         2         8                                                  
*CONSTRAINED_INTERPOLATION
$#    icid      dnid      ddof      cidd      ityp     idnsw       fgm
        12     61106       123                   1         0         0
$#    inid      idof    twghtx    twghty    twghtz    rwghtx    rwghty    rwghtz
        11       123       1.0       1.0       1.0       1.0       1.0       1.0
*PART
$#                                                             heading
superior-vena-cava                                                    
$#     pid     secid       mid     eosid      hgid      grav    adpopt      tmid
        19         2         8                                                  
*CONSTRAINED_INTERPOLATION
$#    icid      dnid      ddof      cidd      ityp     idnsw       fgm
        13     61107       123                   1         0         0
$#    inid      idof    twghtx    twghty    twghtz    rwghtx    rwghty    rwghtz
        12       123       1.0       1.0       1.0       1.0       1.0       1.0
*PART
$#                                                             heading
inferior-vena-cava                                                    
$#     pid     secid       mid     eosid      hgid      grav    adpopt      tmid
        20         2         8                                                  
*CONSTRAINED_INTERPOLATION
$#    icid      dnid      ddof      cidd      ityp     idnsw       fgm
        14     61108       123                   1         0         0
$#    inid      idof    twghtx    twghty    twghtz    rwghtx    rwghty    rwghtz
        13       123       1.0       1.0       1.0       1.0       1.0       1.0
*ELEMENT_SHELL
$#   eid     pid      n1      n2      n3      n4      n5      n6      n7      n8
       1       8   22768   11469   61096                                        
       2       8   12516   20572   61096                                        
       3       8    7042    7044   61096                                        
       4       8   10519    4913   61096                                        
       5       8    8843   21382   61096                                        
       6       8   18057    6798   61096                                        
       7       8   24026   19144   61096                                        
       8       8   20651    6084   61096                                        
       9       8   22872   24139   61096                                        
      10       8    4913    9837   61096                                        
      11       8    7044   11703   61096                                        
      12       8   12515   12516   61096                                        
      13       8    6084    8843   61096                                        
      14       8   25315   20651   61096                                        
      15       8   21382   24026   61096                                        
      16       8   11469   10519   61096                                        
      17       8   24139   20519   61096                                        
      18       8   20519   15781   61096                                        
      19       8    6798   22872   61096                                        
      20       8   19144   12515   61096                                        
$ ... 54 like lines cut
*ELEMENT_SHELL
$#   eid     pid      n1      n2      n3      n4      n5      n6      n7      n8
      75       9    6496    4521   61097                                        
      76       9    4521    1917   61097                                        
      77       9   26012   25479   61097                                        
      78       9    8362   25541   61097                                        
      79       9    5916   20745   61097                                        
      80       9    8143   26129   61097                                        
      81       9   26018   26019   61097                                        
      82       9   25885   22325   61097                                        
      83       9    7709   23363   61097                                        
      84       9   23244   23168   61097                                        
      85       9   19830   17203   61097                                        
      86       9   22953    6118   61097                                        
      87       9   25255    5412   61097                                        
      88       9   26442   25354   61097                                        
      89       9   22331    8226   61097                                        
      90       9    8569   22954   61097                                        
      91       9   23021   18499   61097                                        
      92       9   21921   12081   61097                                        
      93       9   25541    8170   61097                                        
      94       9   17203   25885   61097                                        
$ ... 37 like lines cut
*ELEMENT_SHELL
$#   eid     pid      n1      n2      n3      n4      n5      n6      n7      n8
     132      10   30051   34497   61098                                        
     133      10   36006   30051   61098                                        
     134      10   33357   33355   61098                                        
     135      10   27254   27273   61098                                        
     136      10   35044   32187   61098                                        
     137      10   33174   33119   61098                                        
     138      10   31644   29885   61098                                        
     139      10   35273   38593   61098                                        
     140      10   27692   27690   61098                                        
     141      10   40995   40667   61098                                        
     142      10   37179   37180   61098                                        
     143      10   29023   28575   61098                                        
     144      10   34841   32966   61098                                        
     145      10   41111   38646   61098                                        
     146      10   32634   30588   61098                                        
     147      10   33586   40043   61098                                        
     148      10   37985   37768   61098                                        
     149      10   34181   32633   61098                                        
     150      10   33600   33695   61098                                        
     151      10   36724   37249   61098                                        
$ ... 75 like lines cut
*ELEMENT_SHELL
$#   eid     pid      n1      n2      n3      n4      n5      n6      n7      n8
     227      11   34270   34263   61099                                        
     228      11   33560   34579   61099                                        
     229      11   29846   29842   61099                                        
     230      11   36142   41175   61099                                        
     231      11   34352   27731   61099                                        
     232      11   27731   34270   61099                                        
     233      11   29842   36142   61099                                        
     234      11   41175   34352   61099                                        
     235      11   35038   33560   61099                                        
     236      11   30116   31245   61099                                        
     237      11   31245   30047   61099                                        
     238      11   32304   31935   61099                                        
     239      11   32417   27425   61099                                        
     240      11   27425   27426   61099                                        
     241      11   28450   35179   61099                                        
     242      11   33833   27611   61099                                        
     243      11   27558   30317   61099                                        
     244      11   36285   34422   61099                                        
     245      11   32320   33450   61099                                        
     246      11   34506   34505   61099                                        
$ ... 53 like lines cut
*ELEMENT_SHELL
$#   eid     pid      n1      n2      n3      n4      n5      n6      n7      n8
     300      12   26205   24005   61100                                        
     301      12   24005   25599   61100                                        
     302      12   44763   47446   61100                                        
     303      12   47446   42258   61100                                        
     304      12   47092   44390   61100                                        
     305      12   26428   43929   61100                                        
     306      12   41572   43964   61100                                        
     307      12   21570    3948   61100                                        
     308      12   26427   47079   61100                                        
     309      12   46663   25843   61100                                        
     310      12   42223   43802   61100                                        
     311      12   42897   46772   61100                                        
     312      12   26158   14943   61100                                        
     313      12   41904   44125   61100                                        
     314      12   23170   22522   61100                                        
     315      12   21574   16937   61100                                        
     316      12   43050   44577   61100                                        
     317      12   45612   46372   61100                                        
     318      12   22019   43040   61100                                        
     319      12   44577   26428   61100                                        
$ ... 48 like lines cut
*ELEMENT_SHELL
$#   eid     pid      n1      n2      n3      n4      n5      n6      n7      n8
     368      13   41880   43021   61101                                        
     369      13   41788   41880   61101                                        
     370      13   47016   47739   61101                                        
     371      13   46691   46461   61101                                        
     372      13   44384   43916   61101                                        
     373      13   44620   44267   61101                                        
     374      13   47265   47140   61101                                        
     375      13   44711   45823   61101                                        
     376      13   43021   42161   61101                                        
     377      13   45748   45746   61101                                        
     378      13   44163   45975   61101                                        
     379      13   47739   47870   61101                                        
     380      13   47582   45862   61101                                        
     381      13   44588   43797   61101                                        
     382      13   46028   45633   61101                                        
     383      13   43075   43118   61101                                        
     384      13   41870   43085   61101                                        
     385      13   42480   41659   61101                                        
     386      13   43493   42101   61101                                        
     387      13   43887   44174   61101                                        
$ ... 29 like lines cut
*ELEMENT_SHELL
$#   eid     pid      n1      n2      n3      n4      n5      n6      n7      n8
     417      14   44849   43592   61102                                        
     418      14   44464   42027   61102                                        
     419      14   42027   42025   61102                                        
     420      14   45146   45047   61102                                        
     421      14   41441   41573   61102                                        
     422      14   47893   47782   61102                                        
     423      14   43139   43138   61102                                        
     424      14   44409   44493   61102                                        
     425      14   44006   45146   61102                                        
     426      14   41573   44409   61102                                        
     427      14   44493   47893   61102                                        
     428      14   45047   43139   61102                                        
     429      14   43138   41441   61102                                        
     430      14   47782   44464   61102                                        
     431      14   42025   43889   61102                                        
     432      14   41807   44006   61102                                        
     433      14   44616   44615   61102                                        
     434      14   43313   43316   61102                                        
     435      14   43890   43640   61102                                        
     436      14   44609   44379   61102                                        
$ ... 21 like lines cut
*ELEMENT_SHELL
$#   eid     pid      n1      n2      n3      n4      n5      n6      n7      n8
     458      15   43923   43878   61103                                        
     459      15   43878   43880   61103                                        
     460      15   45566   47259   61103                                        
     461      15   44924   46045   61103                                        
     462      15   46569   45615   61103                                        
     463      15   43880   43830   61103                                        
     464      15   42593   43923   61103                                        
     465      15   46793   46183   61103                                        
     466      15   46759   45544   61103                                        
     467      15   45630   45390   61103                                        
     468      15   42592   42593   61103                                        
     469      15   46045   46759   61103                                        
     470      15   45615   45566   61103                                        
     471      15   46183   46569   61103                                        
     472      15   43830   44924   61103                                        
     473      15   45841   46793   61103                                        
     474      15   45544   43931   61103                                        
     475      15   45390   45841   61103                                        
     476      15   45510   42861   61103                                        
     477      15   45584   45033   61103                                        
$ ... 16 like lines cut
*ELEMENT_SHELL
$#   eid     pid      n1      n2      n3      n4      n5      n6      n7      n8
     494      16   42890   43627   61104                                        
     495      16   44965   42238   61104                                        
     496      16   45859   45904   61104                                        
     497      16   44264   42891   61104                                        
     498      16   43524   44335   61104                                        
     499      16   46656   47431   61104                                        
     500      16   43855   45230   61104                                        
     501      16   45553   45799   61104                                        
     502      16   42891   42890   61104                                        
     503      16   45904   45553   61104                                        
     504      16   44665   43524   61104                                        
     505      16   45799   45599   61104                                        
     506      16   44718   43855   61104                                        
     507      16   46592   45830   61104                                        
     508      16   42736   45859   61104                                        
     509      16   43892   45857   61104                                        
     510      16   43376   44264   61104                                        
     511      16   45230   43892   61104                                        
     512      16   47431   44665   61104                                        
     513      16   42238   44718   61104                                        
$ ... 11 like lines cut
*ELEMENT_SHELL
$#   eid     pid      n1      n2      n3      n4      n5      n6      n7      n8
     525      17   44053   43404   61105                                        
     526      17   41435   41437   61105                                        
     527      17   45158   42960   61105                                        
     528      17   42028   43526   61105                                        
     529      17   43357   41766   61105                                        
     530      17   44604   43748   61105                                        
     531      17   44774   43663   61105                                        
     532      17   43120   43621   61105                                        
     533      17   41350   42501   61105                                        
     534      17   43098   43427   61105                                        
     535      17   42751   43555   61105                                        
     536      17   42502   44114   61105                                        
     537      17   43621   44053   61105                                        
     538      17   41437   43538   61105                                        
     539      17   42960   42691   61105                                        
     540      17   43748   43098   61105                                        
     541      17   43114   43113   61105                                        
     542      17   42501   42502   61105                                        
     543      17   43404   44602   61105                                        
     544      17   43538   45158   61105                                        
$ ... 11 like lines cut
*ELEMENT_SHELL
$#   eid     pid      n1      n2      n3      n4      n5      n6      n7      n8
     556      18   37767   37986   61106                                        
     557      18   52213   50196   61106                                        
     558      18   55805   55995   61106                                        
     559      18   52645   52883   61106                                        
     560      18   56818   31803   61106                                        
     561      18   49714   52213   61106                                        
     562      18   34455   36118   61106                                        
     563      18   40976   40502   61106                                        
     564      18   50489   54659   61106                                        
     565      18   53316   52645   61106                                        
     566      18   49713   49714   61106                                        
     567      18   54659   40976   61106                                        
     568      18   50196   50489   61106                                        
     569      18   55912   55962   61106                                        
     570      18   36118   56818   61106                                        
     571      18   55995   34455   61106                                        
     572      18   40502   51233   61106                                        
     573      18   57233   55805   61106                                        
     574      18   52883   49713   61106                                        
     575      18   35068   55912   61106                                        
$ ... 86 like lines cut
*ELEMENT_SHELL
$#   eid     pid      n1      n2      n3      n4      n5      n6      n7      n8
     662      19   48770   48769   61107                                        
     663      19   49310   51019   61107                                        
     664      19   49943   50172   61107                                        
     665      19   52986   51277   61107                                        
     666      19   52086   52945   61107                                        
     667      19   53302   51313   61107                                        
     668      19   48986   48684   61107                                        
     669      19   53483   53436   61107                                        
     670      19   51547   48770   61107                                        
     671      19   48684   49310   61107                                        
     672      19   48769   53821   61107                                        
     673      19   52945   53215   61107                                        
     674      19   52058   53302   61107                                        
     675      19   51313   48986   61107                                        
     676      19   54922   54396   61107                                        
     677      19   51019   49943   61107                                        
     678      19   53436   52087   61107                                        
     679      19   50172   50311   61107                                        
     680      19   53821   52514   61107                                        
     681      19   52087   52086   61107                                        
$ ... 20 like lines cut
*ELEMENT_SHELL
$#   eid     pid      n1      n2      n3      n4      n5      n6      n7      n8
     702      20   56019   54883   61108                                        
     703      20   55558   55004   61108                                        
     704      20   55967   55402   61108                                        
     705      20   56147   56323   61108                                        
     706      20   55105   53846   61108                                        
     707      20   55551   55558   61108                                        
     708      20   56323   55967   61108                                        
     709      20   53846   55551   61108                                        
     710      20   55852   55105   61108                                        
     711      20   55521   55092   61108                                        
     712      20   55292   55993   61108                                        
     713      20   55859   51148   61108                                        
     714      20   55154   56921   61108                                        
     715      20   55402   55292   61108                                        
     716      20   55148   53804   61108                                        
     717      20   55993   55521   61108                                        
     718      20   55188   55865   61108                                        
     719      20   57040   55197   61108                                        
     720      20   56991   57040   61108                                        
     721      20   55961   55852   61108                                        
$ ... 15 like lines cut
*END