*KEYWORD
$$ penalty with 0.25, 25 $$
*PART
$#                                                             heading
spring                                                                
$#     pid     secid       mid     eosid      hgid      grav    adpopt      tmid
        22         4        10                                                  
*SECTION_DISCRETE
$#   secid       dro        kd        v0        cl        fd
         4         0       0.0       0.0       0.0       0.0
$#     cdl       tdl
       0.0       0.0
*MAT_SPRING_ELASTIC
$#     mid         k
        10      0.05
*DEFINE_SD_ORIENTATION
$#     vid       iop        xt        yt        zt      nid1      nid2
       116         0 0.0342057-0.8711153-0.4898859         0         0
       117         0 -0.264821-0.9639463-0.0260247         0         0
       118         00.03021565 -0.911853-0.4094035         0         0
       119         00.32347664 0.12985730.93728334         0         0
       120         00.11717436-0.40830310.90529484         0         0
       121         0-0.0174751-0.73666520.67603183         0         0
       122         0 -0.200641-0.74245890.63913828         0         0
       123         00.47389609-0.69112870.54567724         0         0
       124         00.60704005-0.50344710.61485231         0         0
       125         0-0.0527751-0.5179935  0.853755         0         0
       126         00.87561578-0.40231530.26728144         0         0
       127         00.73522788-0.42910440.52469939         0         0
       128         00.56926185-0.43961950.69474852         0         0
       129         00.61085331-0.48981880.62204158         0         0
       130         0-0.0407701 0.22358440.97383147         0         0
       131         00.134120880.283465240.94955724         0         0
       132         0-0.4050498-0.02937780.91382247         0         0
       133         0  0.261323-0.0478511-0.9640646         0         0
       134         00.249252240.01699249-0.9682896         0         0
       135         00.11964986-0.0833345-0.9893125         0         0
$ ... 5971 like lines cut
*ELEMENT_DISCRETE
$#   eid     pid      n1      n2     vid               s      pf          offset
     225      22   25957       0     1160.00038796351873       0             0.0
     226      22   26356       0     1170.00021378797828       0             0.0
     227      22   24776       0     118 0.0003022418241       0             0.0
     228      22   26333       0     1190.01675040088594       0             0.0
     229      22   25884       0     1200.01553083118051       0             0.0
     230      22   26414       0     121 0.0179061293602       0             0.0
     231      22   25857       0     122 0.0006699890364       0             0.0
     232      22   23291       0     1230.00108624296263       0             0.0
     233      22   15633       0     1240.00093034596648       0             0.0
     234      22   25863       0     1250.00022936511959       0             0.0
     235      22   10236       0     1260.00029917762731       0             0.0
     236      22    6285       0     1270.00026676803827       0             0.0
     237      22   23727       0     1280.00058970367536       0             0.0
     238      22    5747       0     1290.00026683666511       0             0.0
     239      22   18645       0     1300.71637719869614       0             0.0
     240      22   25356       0     1310.28407126665115       0             0.0
     241      22   26189       0     1320.21780563890934       0             0.0
     242      22     628       0     1330.00029140754486       0             0.0
     243      22   26054       0     1340.00032867636764       0             0.0
     244      22   26432       0     1350.00020321039483       0             0.0
$ ... 5971 like lines cut
*PART
$#                                                             heading
damper                                                                
$#     pid     secid       mid     eosid      hgid      grav    adpopt      tmid
        23         5        11                                                  
*SECTION_DISCRETE
$#   secid       dro        kd        v0        cl        fd
         5         0       0.0       0.0       0.0       0.0
$#     cdl       tdl
       0.0       0.0
*MAT_DAMPER_VISCOUS
$#     mid        dc
        11     0.005
*DEFINE_SD_ORIENTATION
$#     vid       iop        xt        yt        zt      nid1      nid2
      6107         0 0.0342057-0.8711153-0.4898859         0         0
      6108         0 -0.264821-0.9639463-0.0260247         0         0
      6109         00.03021565 -0.911853-0.4094035         0         0
      6110         00.32347664 0.12985730.93728334         0         0
      6111         00.11717436-0.40830310.90529484         0         0
      6112         0-0.0174751-0.73666520.67603183         0         0
      6113         0 -0.200641-0.74245890.63913828         0         0
      6114         00.47389609-0.69112870.54567724         0         0
      6115         00.60704005-0.50344710.61485231         0         0
      6116         0-0.0527751-0.5179935  0.853755         0         0
      6117         00.87561578-0.40231530.26728144         0         0
      6118         00.73522788-0.42910440.52469939         0         0
      6119         00.56926185-0.43961950.69474852         0         0
      6120         00.61085331-0.48981880.62204158         0         0
      6121         0-0.0407701 0.22358440.97383147         0         0
      6122         00.134120880.283465240.94955724         0         0
      6123         0-0.4050498-0.02937780.91382247         0         0
      6124         0  0.261323-0.0478511-0.9640646         0         0
      6125         00.249252240.01699249-0.9682896         0         0
      6126         00.11964986-0.0833345-0.9893125         0         0
$ ... 6261 like lines cut
*ELEMENT_DISCRETE
$#   eid     pid      n1      n2     vid               s      pf          offset
    6216      23   25957       0    6107 1.2628707885742       0             0.0
    6217      23   26356       0    61080.70869356393814       0             0.0
    6218      23   24776       0    61090.87209212779999       0             0.0
    6219      23   26333       0    6110 1.1222732067108       0             0.0
    6220      23   25884       0    6111 1.3289022445679       0             0.0
    6221      23   26414       0    6112 1.1625351905823       0             0.0
    6222      23   25857       0    6113 1.4882349967957       0             0.0
    6223      23   23291       0    6114 1.7624123096466       0             0.0
    6224      23   15633       0    6115 1.7122118473053       0             0.0
    6225      23   25863       0    6116 1.2732264995575       0             0.0
    6226      23   10236       0    6117 1.2240123748779       0             0.0
    6227      23    6285       0    6118 1.2986060380936       0             0.0
    6228      23   23727       0    6119 1.3643482923508       0             0.0
    6229      23    5747       0    6120 1.6654965877533       0             0.0
    6230      23   18645       0    61210.76278978586197       0             0.0
    6231      23   25356       0    61220.30285257101059       0             0.0
    6232      23   26189       0    61230.22912228107452       0             0.0
    6233      23     628       0    6124 1.5376422405243       0             0.0
    6234      23   26054       0    6125  1.575417637825       0             0.0
    6235      23   26432       0    6126 1.2824755907059       0             0.0
$ ... 6261 like lines cut
*PART
$#                                                             heading
spring                                                                
$#     pid     secid       mid     eosid      hgid      grav    adpopt      tmid
        24         6        12                                                  
*SECTION_DISCRETE
$#   secid       dro        kd        v0        cl        fd
         6         0       0.0       0.0       0.0       0.0
$#     cdl       tdl
       0.0       0.0
*MAT_SPRING_ELASTIC
$#     mid         k
        12   7.5e-05
*DEFINE_SD_ORIENTATION
$#     vid       iop        xt        yt        zt      nid1      nid2
     12388         0-0.39575240.00822383-0.9183204         0         0
     12389         0-0.3945073-0.0688353 -0.916311         0         0
     12390         0-0.5238974  0.166951-0.8352597         0         0
     12391         00.068530190.48572609-0.8714205         0         0
     12392         00.004326230.56042749-0.8281922         0         0
     12393         00.109767060.44111675-0.8907116         0         0
     12394         0-0.19829890.92559689-0.3224095         0         0
     12395         0-0.42372580.86119163-0.2807229         0         0
     12396         0-0.28264460.89498466-0.3451296         0         0
     12397         00.516540290.30468178 -0.800222         0         0
     12398         00.562912340.18384859-0.8058098         0         0
     12399         00.72099388-0.0913031   -0.6869         0         0
     12400         00.64653546-0.1514857-0.7476924         0         0
     12401         00.62948167-0.1956933-0.7519687         0         0
     12402         00.24732704 0.2149546-0.9447877         0         0
     12403         00.291841330.23709531-0.9266146         0         0
     12404         00.275375160.33939841-0.8994316         0         0
     12405         00.196631460.68450594-0.7019884         0         0
     12406         00.511891720.58744287-0.6267996         0         0
     12407         0-0.07046960.64312923-0.7625083         0         0
$ ... 6688 like lines cut
*ELEMENT_DISCRETE
$#   eid     pid      n1      n2     vid               s      pf          offset
   12497      24   44681       0   12388 1.5941262245178       0             0.0
   12498      24   43617       0   12389 1.9464905261993       0             0.0
   12499      24   44601       0   12390 1.7620528936386       0             0.0
   12500      24   41926       0   123910.48216617107391       0             0.0
   12501      24   42393       0   123920.71649450063705       0             0.0
   12502      24   41730       0   12393 1.5168259143829       0             0.0
   12503      24   42091       0   123940.53606396913528       0             0.0
   12504      24   44093       0   12395 1.0991163253784       0             0.0
   12505      24   42088       0   123960.77518850564957       0             0.0
   12506      24   43135       0   12397 1.3869199752808       0             0.0
   12507      24   45793       0   12398 1.3841915130615       0             0.0
   12508      24   43433       0   12399 1.1646453142166       0             0.0
   12509      24   50125       0   12400 1.1457915306091       0             0.0
   12510      24   44803       0   12401 1.3458977937698       0             0.0
   12511      24   43423       0   124020.52403193712234       0             0.0
   12512      24   43422       0   12403 1.0437563657761       0             0.0
   12513      24   41457       0   12404  1.200893163681       0             0.0
   12514      24   43134       0   12405 1.3513913154602       0             0.0
   12515      24   43144       0   12406 1.3244395256042       0             0.0
   12516      24   43133       0   12407 1.5308694839478       0             0.0
$ ... 6688 like lines cut
*PART
$#                                                             heading
damper                                                                
$#     pid     secid       mid     eosid      hgid      grav    adpopt      tmid
        25         7        13                                                  
*SECTION_DISCRETE
$#   secid       dro        kd        v0        cl        fd
         7         0       0.0       0.0       0.0       0.0
$#     cdl       tdl
       0.0       0.0
*MAT_DAMPER_VISCOUS
$#     mid        dc
        13     0.005
*DEFINE_SD_ORIENTATION
$#     vid       iop        xt        yt        zt      nid1      nid2
     19096         0-0.39575240.00822383-0.9183204         0         0
     19097         0-0.3945073-0.0688353 -0.916311         0         0
     19098         0-0.5238974  0.166951-0.8352597         0         0
     19099         00.068530190.48572609-0.8714205         0         0
     19100         00.004326230.56042749-0.8281922         0         0
     19101         00.109767060.44111675-0.8907116         0         0
     19102         0-0.19829890.92559689-0.3224095         0         0
     19103         0-0.42372580.86119163-0.2807229         0         0
     19104         0-0.28264460.89498466-0.3451296         0         0
     19105         00.516540290.30468178 -0.800222         0         0
     19106         00.562912340.18384859-0.8058098         0         0
     19107         00.72099388-0.0913031   -0.6869         0         0
     19108         00.64653546-0.1514857-0.7476924         0         0
     19109         00.62948167-0.1956933-0.7519687         0         0
     19110         00.24732704 0.2149546-0.9447877         0         0
     19111         00.291841330.23709531-0.9266146         0         0
     19112         00.275375160.33939841-0.8994316         0         0
     19113         00.196631460.68450594-0.7019884         0         0
     19114         00.511891720.58744287-0.6267996         0         0
     19115         0-0.07046960.64312923-0.7625083         0         0
$ ... 6688 like lines cut
*ELEMENT_DISCRETE
$#   eid     pid      n1      n2     vid               s      pf          offset
   19205      25   44681       0   19096 1.5941262245178       0             0.0
   19206      25   43617       0   19097 1.9464905261993       0             0.0
   19207      25   44601       0   19098 1.7620528936386       0             0.0
   19208      25   41926       0   190990.48216617107391       0             0.0
   19209      25   42393       0   191000.71649450063705       0             0.0
   19210      25   41730       0   19101 1.5168259143829       0             0.0
   19211      25   42091       0   191020.53606396913528       0             0.0
   19212      25   44093       0   19103 1.0991163253784       0             0.0
   19213      25   42088       0   191040.77518850564957       0             0.0
   19214      25   43135       0   19105 1.3869199752808       0             0.0
   19215      25   45793       0   19106 1.3841915130615       0             0.0
   19216      25   43433       0   19107 1.1646453142166       0             0.0
   19217      25   50125       0   19108 1.1457915306091       0             0.0
   19218      25   44803       0   19109 1.3458977937698       0             0.0
   19219      25   43423       0   191100.52403193712234       0             0.0
   19220      25   43422       0   19111 1.0437563657761       0             0.0
   19221      25   41457       0   19112  1.200893163681       0             0.0
   19222      25   43134       0   19113 1.3513913154602       0             0.0
   19223      25   43144       0   19114 1.3244395256042       0             0.0
   19224      25   43133       0   19115 1.5308694839478       0             0.0
$ ... 6688 like lines cut
*END