*KEYWORD
*CONTROL_TERMINATION
$--------1---------2---------3---------4---------5---------6---------7---------8
$   endtim
     2000.
*CONTROL_TIMESTEP
$--------1---------2---------3---------4---------5---------6---------7---------8
$   dtinit                                   dt2ms      lctm
       &dt                                     &dt         3
*DEFINE_CURVE
3
0.,1.
10000.,1.
*DATABASE_BINARY_D3PLOT
$--------1---------2---------3---------4---------5---------6---------7---------8
$       dt
  &dt_plot
*PART
$--------1---------2---------3---------4---------5---------6---------7---------8
ventricle
$      pid     secid     matid     eosid      hgid      grav    adpopt      tmid
         1         1         1     
*SECTION_SOLID
$--------1---------2---------3---------4---------5---------6---------7---------8
$      sid    elform
         1         1
*MAT_ELASTIC
$--------1---------2---------3---------4---------5---------6---------7---------8
$    matid        ro         E        pr
         1      &rho        &E        &v
*HOURGLASS
         3
*END
