*KEYWORD
*PART
$#                                                             heading
SupportSpring                                                         
$#     pid     secid       mid     eosid      hgid      grav    adpopt      tmid
         8         3         5                                                  
*SECTION_DISCRETE
$#   secid       dro        kd        v0        cl        fd
         3         0       0.0       0.0       0.0       0.0
$#     cdl       tdl
       0.0       0.0
*MAT_SPRING_ELASTIC
$#     mid         k
         5     0.002
$$ spring at aortic-valve$$
*DEFINE_SD_ORIENTATION
$#     vid       iop        xt        yt        zt      nid1      nid2
         1         00.722541740.28397379-0.6303113                    
*DEFINE_SD_ORIENTATION
$#     vid       iop        xt        yt        zt      nid1      nid2
         2         00.51320793-0.83145940.21282117                    
         3         00.43441844-0.8958587 0.0933688                    
         4         00.34061456-0.9395897-0.0339533                    
         5         00.23670217-0.9580729-0.1614574                    
         6         00.12753409 -0.950673-0.2827648                    
         7         0 0.0158327-0.9185425-0.3950051                    
         8         0-0.0966544-0.8624467-0.4968336                    
         9         0-0.1976654-0.7885832-0.5822928                    
        10         0 -0.287332-0.7054089-0.6479495                    
        11         0-0.3662297-0.6156026-0.6977888                    
        12         0 -0.436178-0.5197179-0.7346033                    
        13         0 -0.501934-0.4112341-0.7608869                    
        14         0-0.5591068-0.2962271-0.7743701                    
        15         0-0.6070164-0.1761377-0.7749236                    
        16         0-0.6448314-0.0529083-0.7624914                    
        17         0-0.67120980.06763525-0.7381754                    
        18         0-0.68641990.18096728-0.7043284                    
        19         0-0.69184540.28758098-0.6623044                    
        20         0-0.68772850.39096933-0.6116964                    
        21         0-0.67684860.48032097-0.5578241                    
$ ... 26 like lines cut
*ELEMENT_DISCRETE
$#   eid     pid      n1      n2     vid               s      pf          offset
       1       8    2420       0       1 1.7994855249204                        
       2       8    2514       0       1 2.0251704627429                        
       3       8    2515       0       1 1.4495430939631                        
       4       8    2526       0       1 1.5142697397171                        
       5       8    2527       0       1 1.5911916133152                        
       6       8    2496       0       1 1.6709614118886                        
       7       8    2497       0       1 2.0333805162282                        
       8       8    2529       0       1 1.4313384795382                        
       9       8    2530       0       1 1.6224926609941                        
      10       8    2486       0       1 1.4996188201591                        
      11       8    2487       0       1  1.409385555116                        
      12       8    2634       0       1 2.0299921365977                        
      13       8    2517       0       1 1.9481232534292                        
      14       8    2518       0       1 1.9806132843935                        
      15       8    2511       0       1 1.9899106613706                        
      16       8    2512       0       1 2.0071837996746                        
      17       8    2535       0       1 2.1007721806573                        
      18       8    2536       0       1 1.9720639290912                        
      19       8    2502       0       1 2.0186009462793                        
      20       8    2503       0       1 1.6465285178702                        
$ ... 26 like lines cut
*ELEMENT_DISCRETE
$#   eid     pid      n1      n2     vid               s      pf          offset
      47       8    2420       0       2 3.5989710498407                        
      48       8    2514       0       3 4.0503409254859                        
      49       8    2515       0       4 2.8990861879262                        
      50       8    2526       0       5 3.0285394794342                        
      51       8    2527       0       6 3.1823832266305                        
      52       8    2496       0       7 3.3419228237773                        
      53       8    2497       0       8 4.0667610324564                        
      54       8    2529       0       9 2.8626769590764                        
      55       8    2530       0      10 3.2449853219881                        
      56       8    2486       0      11 2.9992376403183                        
      57       8    2487       0      12  2.818771110232                        
      58       8    2634       0      13 4.0599842731953                        
      59       8    2517       0      14 3.8962465068585                        
      60       8    2518       0      15  3.961226568787                        
      61       8    2511       0      16 3.9798213227412                        
      62       8    2512       0      17 4.0143675993491                        
      63       8    2535       0      18 4.2015443613145                        
      64       8    2536       0      19 3.9441278581824                        
      65       8    2502       0      20 4.0372018925586                        
      66       8    2503       0      21 3.2930570357403                        
$ ... 26 like lines cut
$$ spring at mitral-valve$$
*DEFINE_SD_ORIENTATION
$#     vid       iop        xt        yt        zt      nid1      nid2
        48         00.85049058-0.4311386-0.3013059                    
*DEFINE_SD_ORIENTATION
$#     vid       iop        xt        yt        zt      nid1      nid2
        49         00.354858480.045941430.93379058                    
        50         0 0.3152117 -0.0386760.94823296                    
        51         00.27512247-0.12378090.95340752                    
        52         00.23039336-0.2098422 0.9502027                    
        53         00.18339345-0.29410520.93801332                    
        54         00.13408873-0.37489140.91732035                    
        55         00.08642647-0.44947740.88910095                    
        56         00.03614257-0.52393560.85099075                    
        57         0-0.0089873-0.58485550.81108774                    
        58         0-0.0579351-0.64662110.76060811                    
        59         0-0.1162909-0.71208730.69239298                    
        60         0-0.1772837-0.77361650.60834856                    
        61         0-0.2398058-0.82605690.51002269                    
        62         0-0.3029287-0.86565250.39859749                    
        63         0-0.3560771-0.89349910.27362092                    
        64         0-0.4076103-0.90176110.14380821                    
        65         0-0.4485701-0.89368690.01042408                    
        66         0-0.4790664-0.8711154-0.1079506                    
        67         0-0.4992827-0.8411315-0.2078812                    
        68         0-0.5135294-0.8028606 -0.302824                    
$ ... 42 like lines cut
*ELEMENT_DISCRETE
$#   eid     pid      n1      n2     vid               s      pf          offset
      93       8    1439       0      48 1.8913128028876                        
      94       8    1317       0      48 2.1549414662548                        
      95       8    2424       0      48 1.8994258014386                        
      96       8    2538       0      48 1.9231522477177                        
      97       8    2539       0      48  1.983444630549                        
      98       8    2635       0      48 1.5670834659675                        
      99       8    2541       0      48 1.7894490356352                        
     100       8    2542       0      48 1.7009323207185                        
     101       8    2477       0      48 1.5814561307707                        
     102       8    2478       0      48 1.6202180460009                        
     103       8    2520       0      48 1.7180492946243                        
     104       8    2521       0      48 1.7219636153077                        
     105       8    2617       0      48 1.6581286041224                        
     106       8    2464       0      48 1.6218054337878                        
     107       8    2465       0      48 1.5829249807751                        
     108       8    2461       0      48 1.5721217807509                        
     109       8    2462       0      48 1.6855213923862                        
     110       8    2493       0      48  1.629476397562                        
     111       8    2494       0      48 1.5397410237887                        
     112       8    2601       0      48 1.5654083129986                        
$ ... 42 like lines cut
*ELEMENT_DISCRETE
$#   eid     pid      n1      n2     vid               s      pf          offset
     155       8    1439       0      49 3.7826256057751                        
     156       8    1317       0      50 4.3098829325097                        
     157       8    2424       0      51 3.7988516028772                        
     158       8    2538       0      52 3.8463044954353                        
     159       8    2539       0      53 3.9668892610981                        
     160       8    2635       0      54 3.1341669319349                        
     161       8    2541       0      55 3.5788980712703                        
     162       8    2542       0      56 3.4018646414371                        
     163       8    2477       0      57 3.1629122615414                        
     164       8    2478       0      58 3.2404360920018                        
     165       8    2520       0      59 3.4360985892485                        
     166       8    2521       0      60 3.4439272306154                        
     167       8    2617       0      61 3.3162572082449                        
     168       8    2464       0      62 3.2436108675756                        
     169       8    2465       0      63 3.1658499615502                        
     170       8    2461       0      64 3.1442435615018                        
     171       8    2462       0      65 3.3710427847723                        
     172       8    2493       0      66 3.2589527951241                        
     173       8    2494       0      67 3.0794820475774                        
     174       8    2601       0      68 3.1308166259973                        
$ ... 42 like lines cut
$$ spring at pulmonary-valve$$
*DEFINE_SD_ORIENTATION
$#     vid       iop        xt        yt        zt      nid1      nid2
       111         00.41414258 -0.598477-0.6857924                    
*DEFINE_SD_ORIENTATION
$#     vid       iop        xt        yt        zt      nid1      nid2
       112         00.836532570.538148560.10300188                    
       113         00.856726710.490903610.15821816                    
       114         00.89480016 0.39675940.20473066                    
       115         00.911486280.307117030.27362727                    
       116         00.910631710.218003650.35103319                    
       117         00.896870920.124667090.42435912                    
       118         00.869972250.02841826 0.4922811                    
       119         00.82727004-0.07464490.55682352                    
       120         00.77054445-0.17697080.61232555                    
       121         00.70227021-0.27454270.65684312                    
       122         00.62211549-0.36836710.69085308                    
       123         00.53271956-0.45532320.71336572                    
       124         00.44290233-0.52890310.72394688                    
       125         00.34110307-0.5990566 0.7244169                    
       126         00.23995771 -0.6570980.71459258                    
       127         00.13673127-0.70567490.69521761                    
       128         00.03538735-0.74359830.66768953                    
       129         0-0.0618197-0.77117560.63361384                    
       130         0-0.1587321-0.79009930.59207031                    
       131         0-0.2531251-0.79994480.54407361                    
$ ... 41 like lines cut
*ELEMENT_DISCRETE
$#   eid     pid      n1      n2     vid               s      pf          offset
     217       8   10521       0     1110.98730243953512                        
     218       8   10520       0     111 1.0606312082614                        
     219       8   10522       0     111 1.3779540369144                        
     220       8   10409       0     111 1.5857107322059                        
     221       8   10410       0     111 1.9027014534615                        
     222       8   10328       0     111 1.5545392172145                        
     223       8   10329       0     111 1.7528542913723                        
     224       8   10355       0     111 1.6118402558576                        
     225       8   10356       0     111 1.6018792055193                        
     226       8   10481       0     111 1.5693035440777                        
     227       8   10367       0     111 1.6851272329233                        
     228       8   10368       0     111 1.5414984909418                        
     229       8   10385       0     111 1.5474545162068                        
     230       8   10386       0     111 1.7023512384824                        
     231       8   10489       0     111 1.6636574318521                        
     232       8   10370       0     111  1.669610475429                        
     233       8   10371       0     111 1.6664635510197                        
     234       8   10406       0     111 1.6418640362032                        
     235       8   10407       0     111 1.6805595341111                        
     236       8   10376       0     111 1.5790578771138                        
$ ... 41 like lines cut
*ELEMENT_DISCRETE
$#   eid     pid      n1      n2     vid               s      pf          offset
     278       8   10521       0     112 1.9746048790702                        
     279       8   10520       0     113 2.1212624165229                        
     280       8   10522       0     114 2.7559080738287                        
     281       8   10409       0     115 3.1714214644118                        
     282       8   10410       0     116 3.8054029069229                        
     283       8   10328       0     117 3.1090784344289                        
     284       8   10329       0     118 3.5057085827447                        
     285       8   10355       0     119 3.2236805117151                        
     286       8   10356       0     120 3.2037584110385                        
     287       8   10481       0     121 3.1386070881555                        
     288       8   10367       0     122 3.3702544658467                        
     289       8   10368       0     123 3.0829969818836                        
     290       8   10385       0     124 3.0949090324137                        
     291       8   10386       0     125 3.4047024769648                        
     292       8   10489       0     126 3.3273148637041                        
     293       8   10370       0     127  3.339220950858                        
     294       8   10371       0     128 3.3329271020394                        
     295       8   10406       0     129 3.2837280724065                        
     296       8   10407       0     130 3.3611190682222                        
     297       8   10376       0     131 3.1581157542275                        
$ ... 41 like lines cut
$$ spring at tricuspid-valve$$
*DEFINE_SD_ORIENTATION
$#     vid       iop        xt        yt        zt      nid1      nid2
       173         00.75180275-0.6141838-0.2399393                    
*DEFINE_SD_ORIENTATION
$#     vid       iop        xt        yt        zt      nid1      nid2
       174         0-0.16522760.17681459-0.9702765                    
       175         0-0.11951040.23092771-0.9656033                    
       176         0-0.07312260.28395353-0.9560458                    
       177         0-0.02673830.33513995-0.9417889                    
       178         0 0.01968660.38456231-0.9228891                    
       179         00.065949460.43201443-0.8994522                    
       180         00.111994490.47743646-0.8714997                    
       181         00.158135520.52109165-0.8387232                    
       182         00.203504510.56211622-0.8016304                    
       183         0  0.2478220.60025588-0.7604454                    
       184         00.290154550.63360713-0.7171836                    
       185         00.331873390.66574914-0.6683099                    
       186         00.371747590.69588226-0.6144523                    
       187         00.411844690.72158683-0.5565037                    
       188         00.448076480.74477791-0.4945031                    
       189         00.485173580.76056271-0.4314522                    
       190         00.518364020.77386103-0.3639201                    
       191         00.547456250.78407942-0.2924229                    
       192         00.574488750.78859064-0.2192886                    
       193         00.598115150.78827941-0.1444778                    
$ ... 64 like lines cut
*ELEMENT_DISCRETE
$#   eid     pid      n1      n2     vid               s      pf          offset
     339       8   11934       0     173 1.7337786606919                        
     340       8   11894       0     173 1.7886973650609                        
     341       8   11895       0     173 1.8112026947956                        
     342       8   11909       0     173 1.8086819770513                        
     343       8   11910       0     173 1.7969727424541                        
     344       8   11879       0     173  1.767625588769                        
     345       8   11880       0     173 1.7422797601874                        
     346       8   11876       0     173 1.7268956307978                        
     347       8   11877       0     173 1.7169461870052                        
     348       8   11981       0     173 1.7892486169988                        
     349       8   11900       0     173 1.8532775182773                        
     350       8   11901       0     173 1.8300817978266                        
     351       8   11863       0     173 1.8371149535268                        
     352       8   11864       0     173  1.824786637163                        
     353       8   11983       0     173 1.8213676734739                        
     354       8   11882       0     173 1.9213071638506                        
     355       8   11883       0     173 1.7033902432481                        
     356       8   11994       0     173 1.4930168803209                        
     357       8   11873       0     173  2.344842440993                        
     358       8   11874       0     173 1.2473558889888                        
$ ... 64 like lines cut
*ELEMENT_DISCRETE
$#   eid     pid      n1      n2     vid               s      pf          offset
     423       8   11934       0     174 3.4675573213837                        
     424       8   11894       0     175 3.5773947301218                        
     425       8   11895       0     176 3.6224053895912                        
     426       8   11909       0     177 3.6173639541027                        
     427       8   11910       0     178 3.5939454849082                        
     428       8   11879       0     179 3.5352511775379                        
     429       8   11880       0     180 3.4845595203749                        
     430       8   11876       0     181 3.4537912615957                        
     431       8   11877       0     182 3.4338923740104                        
     432       8   11981       0     183 3.5784972339976                        
     433       8   11900       0     184 3.7065550365546                        
     434       8   11901       0     185 3.6601635956532                        
     435       8   11863       0     186 3.6742299070537                        
     436       8   11864       0     187 3.6495732743261                        
     437       8   11983       0     188 3.6427353469477                        
     438       8   11882       0     189 3.8426143277012                        
     439       8   11883       0     190 3.4067804864962                        
     440       8   11994       0     191 2.9860337606418                        
     441       8   11873       0     192 4.6896848819861                        
     442       8   11874       0     193 2.4947117779776                        
$ ... 64 like lines cut
*END