*KEYWORD
*MAT_NULL
$#     mid        ro        pc        mu     terod     cerod        ym        pr
         4     0.001                                                            
*SECTION_SHELL
$#   secid    elform      shrf       nip     propt   qr_irid     icomp     setyp
         2         4    0.8333         3       1.0         0         0         1
$#      t1        t2        t3        t4      nloc     marea      idof    edgset
       1.0       0.0       0.0       0.0       0.0       0.0       0.0         0
*CONSTRAINED_LINEAR_GLOBAL
$#    licd
         1
$#     nid       dof      coef
     49834         1       1.0
       165         1    -0.125
      2507         1    -0.125
      2467         1    -0.125
      2515         1    -0.125
      2447         1    -0.125
      2588         1    -0.125
      2528         1    -0.125
       151         1    -0.125
*CONSTRAINED_LINEAR_GLOBAL
$#    licd
         2
$#     nid       dof      coef
     49834         2       1.0
       165         2    -0.125
      2507         2    -0.125
      2467         2    -0.125
      2515         2    -0.125
      2447         2    -0.125
      2588         2    -0.125
      2528         2    -0.125
       151         2    -0.125
*CONSTRAINED_LINEAR_GLOBAL
$#    licd
         3
$#     nid       dof      coef
     49834         3       1.0
       165         3    -0.125
      2507         3    -0.125
      2467         3    -0.125
      2515         3    -0.125
      2447         3    -0.125
      2588         3    -0.125
      2528         3    -0.125
       151         3    -0.125
*PART
$#                                                             heading
aortic-valve                                                          
$#     pid     secid       mid     eosid      hgid      grav    adpopt      tmid
         4         2         4                                                  
*CONSTRAINED_LINEAR_GLOBAL
$#    licd
         4
$#     nid       dof      coef
     49835         1       1.0
      1407         1    -0.125
      2457         1    -0.125
      2442         1    -0.125
      2450         1    -0.125
      2434         1    -0.125
      1431         1    -0.125
      1412         1    -0.125
      1428         1    -0.125
*CONSTRAINED_LINEAR_GLOBAL
$#    licd
         5
$#     nid       dof      coef
     49835         2       1.0
      1407         2    -0.125
      2457         2    -0.125
      2442         2    -0.125
      2450         2    -0.125
      2434         2    -0.125
      1431         2    -0.125
      1412         2    -0.125
      1428         2    -0.125
*CONSTRAINED_LINEAR_GLOBAL
$#    licd
         6
$#     nid       dof      coef
     49835         3       1.0
      1407         3    -0.125
      2457         3    -0.125
      2442         3    -0.125
      2450         3    -0.125
      2434         3    -0.125
      1431         3    -0.125
      1412         3    -0.125
      1428         3    -0.125
*PART
$#                                                             heading
mitral-valve                                                          
$#     pid     secid       mid     eosid      hgid      grav    adpopt      tmid
         5         2         4                                                  
*CONSTRAINED_LINEAR_GLOBAL
$#    licd
         7
$#     nid       dof      coef
     49836         1       1.0
     10287         1    -0.125
     10315         1    -0.125
     10398         1    -0.125
     10493         1    -0.125
     10326         1    -0.125
     10341         1    -0.125
     10362         1    -0.125
     10365         1    -0.125
*CONSTRAINED_LINEAR_GLOBAL
$#    licd
         8
$#     nid       dof      coef
     49836         2       1.0
     10287         2    -0.125
     10315         2    -0.125
     10398         2    -0.125
     10493         2    -0.125
     10326         2    -0.125
     10341         2    -0.125
     10362         2    -0.125
     10365         2    -0.125
*CONSTRAINED_LINEAR_GLOBAL
$#    licd
         9
$#     nid       dof      coef
     49836         3       1.0
     10287         3    -0.125
     10315         3    -0.125
     10398         3    -0.125
     10493         3    -0.125
     10326         3    -0.125
     10341         3    -0.125
     10362         3    -0.125
     10365         3    -0.125
*PART
$#                                                             heading
pulmonary-valve                                                       
$#     pid     secid       mid     eosid      hgid      grav    adpopt      tmid
         6         2         4                                                  
*CONSTRAINED_LINEAR_GLOBAL
$#    licd
        10
$#     nid       dof      coef
     49837         1       1.0
     11929         1-0.1428571
     11857         1-0.1428571
     11892         1-0.1428571
     13974         1-0.1428571
     14040         1-0.1428571
     14014         1-0.1428571
     14074         1-0.1428571
*CONSTRAINED_LINEAR_GLOBAL
$#    licd
        11
$#     nid       dof      coef
     49837         2       1.0
     11929         2-0.1428571
     11857         2-0.1428571
     11892         2-0.1428571
     13974         2-0.1428571
     14040         2-0.1428571
     14014         2-0.1428571
     14074         2-0.1428571
*CONSTRAINED_LINEAR_GLOBAL
$#    licd
        12
$#     nid       dof      coef
     49837         3       1.0
     11929         3-0.1428571
     11857         3-0.1428571
     11892         3-0.1428571
     13974         3-0.1428571
     14040         3-0.1428571
     14014         3-0.1428571
     14074         3-0.1428571
*PART
$#                                                             heading
tricuspid-valve                                                       
$#     pid     secid       mid     eosid      hgid      grav    adpopt      tmid
         7         2         4                                                  
*ELEMENT_SHELL
$#   eid     pid      n1      n2      n3      n4      n5      n6      n7      n8
       1       4   49834     165      20                                        
       2       4   49834      20    2398                                        
       3       4   49834    2398    2494                                        
       4       4   49834    2494    2495                                        
       5       4   49834    2495    2506                                        
       6       4   49834    2506    2507                                        
       7       4   49834    2507    2479                                        
       8       4   49834    2479    2480                                        
       9       4   49834    2480    2509                                        
      10       4   49834    2509    2510                                        
      11       4   49834    2510    2466                                        
      12       4   49834    2466    2467                                        
      13       4   49834    2467    2615                                        
      14       4   49834    2615    2497                                        
      15       4   49834    2497    2498                                        
      16       4   49834    2498    2491                                        
      17       4   49834    2491    2492                                        
      18       4   49834    2492    2515                                        
      19       4   49834    2515    2516                                        
      20       4   49834    2516    2482                                        
$ ... 26 like lines cut
*ELEMENT_SHELL
$#   eid     pid      n1      n2      n3      n4      n5      n6      n7      n8
      47       5   49835    1407    1312                                        
      48       5   49835    1312    2401                                        
      49       5   49835    2401    2518                                        
      50       5   49835    2518    2519                                        
      51       5   49835    2519    2599                                        
      52       5   49835    2599    2524                                        
      53       5   49835    2524    2525                                        
      54       5   49835    2525    2457                                        
      55       5   49835    2457    2458                                        
      56       5   49835    2458    2500                                        
      57       5   49835    2500    2501                                        
      58       5   49835    2501    2601                                        
      59       5   49835    2601    2444                                        
      60       5   49835    2444    2445                                        
      61       5   49835    2445    2441                                        
      62       5   49835    2441    2442                                        
      63       5   49835    2442    2473                                        
      64       5   49835    2473    2474                                        
      65       5   49835    2474    2584                                        
      66       5   49835    2584    2476                                        
$ ... 42 like lines cut
*ELEMENT_SHELL
$#   eid     pid      n1      n2      n3      n4      n5      n6      n7      n8
     109       6   49836   10275   10276                                        
     110       6   49836   10457   10275                                        
     111       6   49836   10366   10457                                        
     112       6   49836   10365   10366                                        
     113       6   49836   10360   10365                                        
     114       6   49836   10359   10360                                        
     115       6   49836   10375   10359                                        
     116       6   49836   10374   10375                                        
     117       6   49836   10372   10374                                        
     118       6   49836   10371   10372                                        
     119       6   49836   10363   10371                                        
     120       6   49836   10362   10363                                        
     121       6   49836   10345   10362                                        
     122       6   49836   10344   10345                                        
     123       6   49836   10348   10344                                        
     124       6   49836   10347   10348                                        
     125       6   49836   10381   10347                                        
     126       6   49836   10380   10381                                        
     127       6   49836   10342   10380                                        
     128       6   49836   10341   10342                                        
$ ... 41 like lines cut
*ELEMENT_SHELL
$#   eid     pid      n1      n2      n3      n4      n5      n6      n7      n8
     170       7   49837   11724   11725                                        
     171       7   49837   14044   11724                                        
     172       7   49837   13996   14044                                        
     173       7   49837   13995   13996                                        
     174       7   49837   14011   13995                                        
     175       7   49837   14010   14011                                        
     176       7   49837   13979   14010                                        
     177       7   49837   13978   13979                                        
     178       7   49837   14008   13978                                        
     179       7   49837   14007   14008                                        
     180       7   49837   14074   14007                                        
     181       7   49837   14028   14074                                        
     182       7   49837   14027   14028                                        
     183       7   49837   14005   14027                                        
     184       7   49837   14004   14005                                        
     185       7   49837   14083   14004                                        
     186       7   49837   14002   14083                                        
     187       7   49837   14001   14002                                        
     188       7   49837   14017   14001                                        
     189       7   49837   14016   14017                                        
$ ... 64 like lines cut
*END