*KEYWORD
$$ penalty with 0.25, 25 $$
*PART
$#                                                             heading
spring                                                                
$#     pid     secid       mid     eosid      hgid      grav    adpopt      tmid
         9         4         6                                                  
*SECTION_DISCRETE
$#   secid       dro        kd        v0        cl        fd
         4         0       0.0       0.0       0.0       0.0
$#     cdl       tdl
       0.0       0.0
*MAT_SPRING_ELASTIC
$#     mid         k
         6      0.05
*DEFINE_SD_ORIENTATION
$#     vid       iop        xt        yt        zt      nid1      nid2
       258         00.752957220.116822820.64761716                    
       259         00.34165725-0.25551960.90442252                    
       260         0  0.7110160.300087660.63592744                    
       261         00.709704040.054356570.70239979                    
       262         00.744742690.041399440.66606635                    
       263         00.71027529 0.01911350.70366436                    
       264         00.797728180.130444230.58873951                    
       265         00.811007920.10318587 0.5758636                    
       266         00.790961030.117390770.60049987                    
       267         00.47121558-0.12773070.87272024                    
       268         00.52598274-0.1070736 0.8437283                    
       269         0 0.4867644-0.13710830.86270607                    
       270         00.74456275 0.10818960.65872705                    
       271         00.777292850.101314950.62092769                    
       272         00.76473856 0.07884170.63949895                    
       273         00.816088320.144851730.55948007                    
       274         00.819374560.11815533 0.5609498                    
       275         00.55502647-0.05456070.83004141                    
       276         0 0.6011467-0.05711770.79709488                    
       277         00.56655252 -0.0886670.81924129                    
$ ... 4837 like lines cut
*ELEMENT_DISCRETE
$#   eid     pid      n1      n2     vid               s      pf          offset
     507       9    4471       0     2580.00030433190267                        
     508       9    4472       0     2590.00022007726433                        
     509       9    4473       0     2600.00035389463882                        
     510       9    4504       0     2610.00074930421681                        
     511       9    4505       0     2620.00100637246263                        
     512       9    4506       0     2630.00092006019547                        
     513       9    4518       0     2640.00081148059118                        
     514       9    4519       0     2650.00103766839264                        
     515       9    4520       0     2660.00088770470117                        
     516       9    4524       0     2670.00068486880391                        
     517       9    4525       0     268 0.0008222235561                        
     518       9    4526       0     2690.00078075839659                        
     519       9    4527       0     2700.00084020061538                        
     520       9    4528       0     2710.00075213263825                        
     521       9    4529       0     272 0.0006606393975                        
     522       9    4536       0     2730.00110490361591                        
     523       9    4537       0     2740.00080751618084                        
     524       9    4556       0     2750.00068753449904                        
     525       9    4557       0     2760.00081333919143                        
     526       9    4558       0     2770.00076928116841                        
$ ... 4837 like lines cut
*PART
$#                                                             heading
damper                                                                
$#     pid     secid       mid     eosid      hgid      grav    adpopt      tmid
        10         5         7                                                  
*SECTION_DISCRETE
$#   secid       dro        kd        v0        cl        fd
         5         0       0.0       0.0       0.0       0.0
$#     cdl       tdl
       0.0       0.0
*MAT_DAMPER_VISCOUS
$#     mid        dc
         7     0.005
*DEFINE_SD_ORIENTATION
$#     vid       iop        xt        yt        zt      nid1      nid2
      5115         00.53186417-0.55680940.63803118                    
      5116         0 0.5277161-0.43087920.73202384                    
      5117         00.30945277-0.50788520.80392259                    
      5118         00.71019143-0.32172610.62619513                    
      5119         00.752957220.116822820.64761716                    
      5120         00.34165725-0.25551960.90442252                    
      5121         0  0.7110160.300087660.63592744                    
      5122         0 -0.9457520.15209377-0.2870902                    
      5123         0-0.9025588 0.43001670.02175462                    
      5124         0-0.90494680.16927935-0.3904047                    
      5125         0-0.70083110.606735940.37510994                    
      5126         0-0.60179070.78541052 0.1448382                    
      5127         0-0.17308380.96756434-0.1840142                    
      5128         0-0.5579172-0.68587230.46723405                    
      5129         0 -0.471864-0.70613560.52793652                    
      5130         0-0.4244208-0.80702590.41058031                    
      5131         00.174965860.96288282-0.2055324                    
      5132         00.235261370.93760478-0.2560262                    
      5133         0  0.105294 0.9805758-0.1654817                    
      5134         0-0.2737094-0.69285580.66710883                    
$ ... 11345 like lines cut
*ELEMENT_DISCRETE
$#   eid     pid      n1      n2     vid               s      pf          offset
    5364      10    4467       0    5115 2.7300148266874                        
    5365      10    4468       0    5116  2.571131665274                        
    5366      10    4469       0    5117 2.2645566850573                        
    5367      10    4470       0    5118   3.02866709699                        
    5368      10    4471       0    5119  2.868450599292                        
    5369      10    4472       0    5120 1.7599064825435                        
    5370      10    4473       0    5121 2.3636014318386                        
    5371      10    4474       0    5122 2.6364102154851                        
    5372      10    4475       0    5123 3.2844215457495                        
    5373      10    4476       0    5124 3.6995113436676                        
    5374      10    4477       0    5125 1.9147640124685                        
    5375      10    4478       0    5126 2.0591766510008                        
    5376      10    4479       0    5127 3.3681855924442                        
    5377      10    4480       0    5128 3.6731923555138                        
    5378      10    4481       0    5129 3.8494609937457                        
    5379      10    4482       0    5130 3.3253559573857                        
    5380      10    4483       0    5131 3.3262154024195                        
    5381      10    4484       0    5132 3.9520782489077                        
    5382      10    4485       0    5133 3.3745963524466                        
    5383      10    4486       0    5134 3.7229325225655                        
$ ... 11345 like lines cut
*END