*KEYWORD
*SECTION_BEAM
$#   secid    elform      shrf   qr/irid       cst     scoor       nsm     naupd
         2         3       1.0         2         0       0.0       0.0         0
$#       a     rampt    stress
     645.0                    
*NODE
$#   nid               x               y               z      tc      rc
   61109   66.9674180622    75.824064799   353.949245255                
   61110   67.1789820981   75.5790274751   355.082786209                
   61111   67.7944634088   76.3301458821   354.964355956                
   61112   66.3468337376   76.0783576447   352.579028538                
   61113   66.6646947008   75.1673788847   356.412277901                
   61114   68.7389974677    77.405267486   355.413802017                
   61115   65.6045333481   76.3983797928   351.332116986                
   61116   66.0727517294   74.6303610638   357.689432918                
   61117   69.1883270524   78.6686367298   355.953820543                
   61118   64.3664010562   76.3368539439   350.640101831                
   61119   65.2286274573   77.4014948426   350.360020709                
   61120   66.1204086969   74.5558532699    359.17171119                
   61121   64.9176533573   74.1400485653   358.436161988                
   61122   69.4873561635   80.0718211828   355.777120714                
   61123   69.6223323838   79.4682920673   357.077123867                
   61124   62.9996721533    76.284890362   350.079215234                
   61125   64.8980315656   78.5169061417   349.411853391                
   61126   66.3026509043   74.5567013808   360.659280466                
   61127   63.6548618964   73.9448558146   359.146643088                
   61128   69.6740389177   81.5470936987   355.635788608                
$ ... 8140 like lines cut
$$ Left-purkinje $$
*EM_EP_PURKINJE_NETWORK2
$#  purkid  buildnet      ssid       mid nodestart  pointstx  pointsty  pointstz
         9         0         5         9            67.22632 75.676533 354.64464
$# edgelen      ngen   nbrinit    nsplit   inodeid   iedgeid
       1.5       200         3         4                    
$# pmjtype pmjradiuspmjrestype    pmjres
         2       1.5         1     0.001
*PART
$#                                                             heading
Left-purkinje                                                         
$#     pid     secid       mid     eosid      hgid      grav    adpopt      tmid
         9         2         9                                                  
*MAT_NULL
$#     mid        ro        pc        mu     terod     cerod        ym        pr
         9     1e-11                                                            
*EM_MAT_001
$#     mid     mtype     sigma     eosid    unused   lambda_    deatht   rdltype
         9         2       1.0                                   1e+28         0
$#   empty      freq     epsrr    eosid2     epsri    eosid3      eps0
                                                                      
$#    beta        cm
     140.0      0.01
*ELEMENT_BEAM
$#   eid     pid      n1      n2      n3     rt1     rr1     rt2     rr2   local
       1       9   17543   61109                                                
       2       9   17543   61110                                                
       3       9   17543   61111                                                
       4       9   61109   61112                                                
       5       9   61110   61113                                                
       6       9   61111   61114                                                
       7       9   61112   61115                                                
       8       9   61113   61116                                                
       9       9   61114   61117                                                
      10       9   61115   61118                                                
      11       9   61115   61119                                                
      12       9   61116   61120                                                
      13       9   61116   61121                                                
      14       9   61117   61122                                                
      15       9   61117   61123                                                
      16       9   61118   61124                                                
      17       9   61119   61125                                                
      18       9   61120   61126                                                
      19       9   61121   61127                                                
      20       9   61122   61128                                                
$ ... 5295 like lines cut
$$ Right-purkinje $$
*EM_EP_PURKINJE_NETWORK2
$#  purkid  buildnet      ssid       mid nodestart  pointstx  pointsty  pointstz
        10         0         7        10           45.478265 78.501682 333.32541
$# edgelen      ngen   nbrinit    nsplit   inodeid   iedgeid
       1.5       200         3         4                    
$# pmjtype pmjradiuspmjrestype    pmjres
         2       1.5         1     0.001
*PART
$#                                                             heading
Right-purkinje                                                        
$#     pid     secid       mid     eosid      hgid      grav    adpopt      tmid
        10         2        10                                                  
*MAT_NULL
$#     mid        ro        pc        mu     terod     cerod        ym        pr
        10     1e-11                                                            
*EM_MAT_001
$#     mid     mtype     sigma     eosid    unused   lambda_    deatht   rdltype
        10         2       1.0                                   1e+28         0
$#   empty      freq     epsrr    eosid2     epsri    eosid3      eps0
                                                                      
$#    beta        cm
     140.0      0.01
*ELEMENT_BEAM
$#   eid     pid      n1      n2      n3     rt1     rr1     rt2     rr2   local
    5316      10   32803   65142                                                
    5317      10   32803   65143                                                
    5318      10   32803   65144                                                
    5319      10   65142   65145                                                
    5320      10   65143   65146                                                
    5321      10   65144   65147                                                
    5322      10   65145   65148                                                
    5323      10   65146   65149                                                
    5324      10   65147   65150                                                
    5325      10   65148   65151                                                
    5326      10   65148   65152                                                
    5327      10   65149   65153                                                
    5328      10   65149   65154                                                
    5329      10   65150   65155                                                
    5330      10   65150   65156                                                
    5331      10   65151   65157                                                
    5332      10   65152   65158                                                
    5333      10   65153   65159                                                
    5334      10   65154   65160                                                
    5335      10   65155   65161                                                
$ ... 5260 like lines cut
$$ SAN_to_AVN $$
*EM_EP_PURKINJE_NETWORK2
$#  purkid  buildnet      ssid       mid nodestart  pointstx  pointsty  pointstz
        11         0        12        11          -48.099995 108.38398  423.0087
$# edgelen      ngen   nbrinit    nsplit   inodeid   iedgeid
       1.5       200         3         4                    
$# pmjtype pmjradiuspmjrestype    pmjres
         2       1.5         1     0.001
*PART
$#                                                             heading
SAN_to_AVN                                                            
$#     pid     secid       mid     eosid      hgid      grav    adpopt      tmid
        11         2        11                                                  
*MAT_NULL
$#     mid        ro        pc        mu     terod     cerod        ym        pr
        11     1e-11                                                            
*EM_MAT_001
$#     mid     mtype     sigma     eosid    unused   lambda_    deatht   rdltype
        11         2       1.0                                   1e+28         0
$#   empty      freq     epsrr    eosid2     epsri    eosid3      eps0
                                                                      
$#    beta        cm
     140.0      0.01
*ELEMENT_BEAM
$#   eid     pid      n1      n2      n3     rt1     rr1     rt2     rr2   local
   10596      11   49710   69167                                                
   10597      11   69167   69168                                                
   10598      11   69168   69169                                                
   10599      11   69169   69170                                                
   10600      11   69170   69171                                                
   10601      11   69171   69172                                                
   10602      11   69172   69173                                                
   10603      11   69173   69174                                                
   10604      11   69174   69175                                                
   10605      11   69175   69176                                                
   10606      11   69176   69177                                                
   10607      11   69177   69178                                                
   10608      11   69178   69179                                                
   10609      11   69179   69180                                                
   10610      11   69180   69181                                                
   10611      11   69181   69182                                                
   10612      11   69182   69183                                                
   10613      11   69183   69184                                                
   10614      11   69184   69185                                                
   10615      11   69185   69186                                                
$ ... 14 like lines cut
$$ His_top $$
*EM_EP_PURKINJE_NETWORK2
$#  purkid  buildnet      ssid       mid nodestart  pointstx  pointsty  pointstz
        12         0        16        12          -10.565599  106.6312 374.95309
$# edgelen      ngen   nbrinit    nsplit   inodeid   iedgeid
       1.5       200         3         4                    
$# pmjtype pmjradiuspmjrestype    pmjres
         2       1.5         1     0.001
*PART
$#                                                             heading
His_top                                                               
$#     pid     secid       mid     eosid      hgid      grav    adpopt      tmid
        12         2        12                                                  
*MAT_NULL
$#     mid        ro        pc        mu     terod     cerod        ym        pr
        12     1e-11                                                            
*EM_MAT_001
$#     mid     mtype     sigma     eosid    unused   lambda_    deatht   rdltype
        12         2       1.0                                   1e+28         0
$#   empty      freq     epsrr    eosid2     epsri    eosid3      eps0
                                                                      
$#    beta        cm
     140.0      0.01
*ELEMENT_BEAM
$#   eid     pid      n1      n2      n3     rt1     rr1     rt2     rr2   local
   10630      12   69200   69201                                                
   10631      12   69201   69202                                                
   10632      12   69202   69203                                                
   10633      12   69203   69204                                                
   10634      12   69204   69205                                                
   10635      12   69205   69206                                                
   10636      12   69206   69207                                                
   10637      12   69207   69208                                                
   10638      12   69208   69209                                                
   10639      12   69209   69210                                                
   10640      12   69210   69211                                                
   10641      12   69211   69212                                                
$$ His_left $$
*EM_EP_PURKINJE_NETWORK2
$#  purkid  buildnet      ssid       mid nodestart  pointstx  pointsty  pointstz
        13         0        17        13           4.0736027 106.28795 367.50436
$# edgelen      ngen   nbrinit    nsplit   inodeid   iedgeid
       1.5       200         3         4                    
$# pmjtype pmjradiuspmjrestype    pmjres
         2       1.5         1     0.001
*PART
$#                                                             heading
His_left                                                              
$#     pid     secid       mid     eosid      hgid      grav    adpopt      tmid
        13         2        13                                                  
*MAT_NULL
$#     mid        ro        pc        mu     terod     cerod        ym        pr
        13     1e-11                                                            
*EM_MAT_001
$#     mid     mtype     sigma     eosid    unused   lambda_    deatht   rdltype
        13         2       1.0                                   1e+28         0
$#   empty      freq     epsrr    eosid2     epsri    eosid3      eps0
                                                                      
$#    beta        cm
     140.0      0.01
*ELEMENT_BEAM
$#   eid     pid      n1      n2      n3     rt1     rr1     rt2     rr2   local
   10642      13   69212   69213                                                
   10643      13   69213   69214                                                
   10644      13   69214   69215                                                
   10645      13   69215   69216                                                
   10646      13   69216   69217                                                
   10647      13   69217   69218                                                
$$ His_right $$
*EM_EP_PURKINJE_NETWORK2
$#  purkid  buildnet      ssid       mid nodestart  pointstx  pointsty  pointstz
        14         0        18        14           4.0736027 106.28795 367.50436
$# edgelen      ngen   nbrinit    nsplit   inodeid   iedgeid
       1.5       200         3         4                    
$# pmjtype pmjradiuspmjrestype    pmjres
         2       1.5         1     0.001
*PART
$#                                                             heading
His_right                                                             
$#     pid     secid       mid     eosid      hgid      grav    adpopt      tmid
        14         2        14                                                  
*MAT_NULL
$#     mid        ro        pc        mu     terod     cerod        ym        pr
        14     1e-11                                                            
*EM_MAT_001
$#     mid     mtype     sigma     eosid    unused   lambda_    deatht   rdltype
        14         2       1.0                                   1e+28         0
$#   empty      freq     epsrr    eosid2     epsri    eosid3      eps0
                                                                      
$#    beta        cm
     140.0      0.01
*ELEMENT_BEAM
$#   eid     pid      n1      n2      n3     rt1     rr1     rt2     rr2   local
   10648      14   69212   69219                                                
   10649      14   69219   69220                                                
   10650      14   69220   69221                                                
   10651      14   69221   69222                                                
$$ Left bundle branch $$
*EM_EP_PURKINJE_NETWORK2
$#  purkid  buildnet      ssid       mid nodestart  pointstx  pointsty  pointstz
        15         0         5        15           10.747275 108.58216 369.72919
$# edgelen      ngen   nbrinit    nsplit   inodeid   iedgeid
       1.5       200         3         4                    
$# pmjtype pmjradiuspmjrestype    pmjres
         2       1.5         1     0.001
*PART
$#                                                             heading
Left bundle branch                                                    
$#     pid     secid       mid     eosid      hgid      grav    adpopt      tmid
        15         2        15                                                  
*MAT_NULL
$#     mid        ro        pc        mu     terod     cerod        ym        pr
        15     1e-11                                                            
*EM_MAT_001
$#     mid     mtype     sigma     eosid    unused   lambda_    deatht   rdltype
        15         2       1.0                                   1e+28         0
$#   empty      freq     epsrr    eosid2     epsri    eosid3      eps0
                                                                      
$#    beta        cm
     140.0      0.01
*ELEMENT_BEAM
$#   eid     pid      n1      n2      n3     rt1     rr1     rt2     rr2   local
   10652      15   69218   69223                                                
   10653      15   69223   69224                                                
   10654      15   69224   69225                                                
   10655      15   69225   69226                                                
   10656      15   69226   69227                                                
   10657      15   69227   69228                                                
   10658      15   69228   69229                                                
   10659      15   69229   69230                                                
   10660      15   69230   69231                                                
   10661      15   69231   69232                                                
   10662      15   69232   69233                                                
   10663      15   69233   69234                                                
   10664      15   69234   69235                                                
   10665      15   69235   69236                                                
   10666      15   69236   20724                                                
   10667      15   20724   20723                                                
   10668      15   20723   19783                                                
   10669      15   19783   13118                                                
   10670      15   13118   13120                                                
   10671      15   13120    3855                                                
$ ... 18 like lines cut
$$ Right bundle branch $$
*EM_EP_PURKINJE_NETWORK2
$#  purkid  buildnet      ssid       mid nodestart  pointstx  pointsty  pointstz
        16         0        19        16            3.937144 105.19917 362.51245
$# edgelen      ngen   nbrinit    nsplit   inodeid   iedgeid
       1.5       200         3         4                    
$# pmjtype pmjradiuspmjrestype    pmjres
         2       1.5         1     0.001
*PART
$#                                                             heading
Right bundle branch                                                   
$#     pid     secid       mid     eosid      hgid      grav    adpopt      tmid
        16         2        16                                                  
*MAT_NULL
$#     mid        ro        pc        mu     terod     cerod        ym        pr
        16     1e-11                                                            
*EM_MAT_001
$#     mid     mtype     sigma     eosid    unused   lambda_    deatht   rdltype
        16         2       1.0                                   1e+28         0
$#   empty      freq     epsrr    eosid2     epsri    eosid3      eps0
                                                                      
$#    beta        cm
     140.0      0.01
*ELEMENT_BEAM
$#   eid     pid      n1      n2      n3     rt1     rr1     rt2     rr2   local
   10690      16   69222   69237                                                
   10691      16   69237   69238                                                
   10692      16   69238   69239                                                
   10693      16   69239   69240                                                
   10694      16   69240   69241                                                
   10695      16   69241   69242                                                
   10696      16   69242   69243                                                
   10697      16   69243   69244                                                
   10698      16   69244   69245                                                
   10699      16   69245   69246                                                
   10700      16   69246   69247                                                
   10701      16   69247   69248                                                
   10702      16   69248   69249                                                
   10703      16   69249   69250                                                
   10704      16   69250   69251                                                
   10705      16   69251   69252                                                
   10706      16   69252   69253                                                
   10707      16   69253   69254                                                
   10708      16   69254   69255                                                
   10709      16   69255   69256                                                
$ ... 13 like lines cut
*END