*KEYWORD
*PART
$#                                                             heading
SupportSpring                                                         
$#     pid     secid       mid     eosid      hgid      grav    adpopt      tmid
        20         3        10                                                  
*SECTION_DISCRETE
$#   secid       dro        kd        v0        cl        fd
         3         0       0.0       0.0       0.0       0.0
$#     cdl       tdl
       0.0       0.0
*MAT_SPRING_ELASTIC
$#     mid         k
        10     2e+13
$$ spring at pulmonary-valve$$
*DEFINE_SD_ORIENTATION
$#     vid       iop        xt        yt        zt      nid1      nid2
         1         00.41014505-0.6008037-0.6861603                    
*DEFINE_SD_ORIENTATION
$#     vid       iop        xt        yt        zt      nid1      nid2
         2         00.030380790.75991018-0.6493177                    
         3         00.09174837 0.7754326-0.6247292                    
         4         00.162682420.78777816-0.5940875                    
         5         00.231963980.79575824-0.5594297                    
         6         00.296468620.79910743-0.5230045                    
         7         00.349921470.80762597-0.4746528                    
         8         00.426003180.76535698-0.4824417                    
         9         00.456717090.79356029 -0.402084                    
        10         00.520109370.77188738-0.3656175                    
        11         00.584761940.75067223-0.3074812                    
        12         00.662683670.69626886-0.2757898                    
        13         00.695298420.69709821-0.1749691                    
        14         00.759171170.64180553-0.1083734                    
        15         00.808723160.58737011-0.0310356                    
        16         00.850522890.52357068 0.0498454                    
        17         00.875101640.471185880.11036751                    
        18         00.894610490.41145359 0.1742929                    
        19         00.909901450.339178680.23882456                    
        20         0 0.92637480.257980470.27436438                    
        21         00.901384850.267064270.34085485                    
$ ... 49 like lines cut
*ELEMENT_DISCRETE
$#   eid     pid      n1      n2     vid               s      pf          offset
       1      20   28455       0       1 1.1602441256113                        
       2      20   17945       0       1 1.3454428485665                        
       3      20   28434       0       1 1.2669298449605                        
       4      20   28435       0       1 1.2155902063402                        
       5      20   28490       0       1 1.2694560314608                        
       6      20   28491       0       1 1.2928303542765                        
       7      20   28541       0       1 1.9129603493191                        
       8      20   28460       0       1 1.6431585819424                        
       9      20   28461       0       1 1.8161357974499                        
      10      20   28538       0       1 1.6810016095668                        
      11      20   28551       0       1 1.8183082516993                        
      12      20   28539       0       1 1.9906200027453                        
      13      20   28452       0       1 1.7659525232469                        
      14      20   28453       0       1 1.7832870671156                        
      15      20   28323       0       1 1.8118788941381                        
      16      20   30020       0       1 1.4926389567869                        
      17      20   30103       0       1 1.1749923676498                        
      18      20   30159       0       1 1.2309173462709                        
      19      20   30154       0       1 1.6066024883503                        
      20      20   30155       0       10.85488362085495                        
$ ... 49 like lines cut
*ELEMENT_DISCRETE
$#   eid     pid      n1      n2     vid               s      pf          offset
      70      20   28455       0       2 2.3204882512225                        
      71      20   17945       0       3 2.6908856971329                        
      72      20   28434       0       4  2.533859689921                        
      73      20   28435       0       5 2.4311804126804                        
      74      20   28490       0       6 2.5389120629217                        
      75      20   28491       0       7 2.5856607085531                        
      76      20   28541       0       8 3.8259206986381                        
      77      20   28460       0       9 3.2863171638847                        
      78      20   28461       0      10 3.6322715948997                        
      79      20   28538       0      11 3.3620032191336                        
      80      20   28551       0      12 3.6366165033985                        
      81      20   28539       0      13 3.9812400054906                        
      82      20   28452       0      14 3.5319050464938                        
      83      20   28453       0      15 3.5665741342313                        
      84      20   28323       0      16 3.6237577882763                        
      85      20   30020       0      17 2.9852779135739                        
      86      20   30103       0      18 2.3499847352996                        
      87      20   30159       0      19 2.4618346925419                        
      88      20   30154       0      20 3.2132049767007                        
      89      20   30155       0      21 1.7097672417099                        
$ ... 49 like lines cut
$$ spring at right-inferior-pulmonary-vein$$
*DEFINE_SD_ORIENTATION
$#     vid       iop        xt        yt        zt      nid1      nid2
        71         00.85410495-0.51764730.05045801                    
*DEFINE_SD_ORIENTATION
$#     vid       iop        xt        yt        zt      nid1      nid2
        72         0 0.30488990.41911029-0.8552127                    
        73         00.363803570.52643215-0.7684505                    
        74         00.418752070.62542999 -0.658395                    
        75         00.464670240.71449565-0.5230464                    
        76         00.497586480.78363969-0.3719093                    
        77         00.51676263 0.8319265-0.2021254                    
        78         00.519383060.85436937-0.0171525                    
        79         00.50276173 0.84606510.17721309                    
        80         00.46386203 0.80152140.37735324                    
        81         00.40554183 0.72314360.55910567                    
        82         00.333119120.618626710.71157055                    
        83         00.249612120.492803940.83356947                    
        84         00.163797580.359576320.91862681                    
        85         00.07669324 0.2211154 0.9722274                    
        86         0-0.00532760.087196720.99617687                    
        87         0-0.0930631-0.05028680.99438951                    
        88         0-0.1717872-0.18890030.96685358                    
        89         0-0.2486851-0.32166440.91361248                    
        90         0-0.3180506-0.44365590.83786233                    
        91         0-0.3825593-0.56033190.73462683                    
$ ... 15 like lines cut
*ELEMENT_DISCRETE
$#   eid     pid      n1      n2     vid               s      pf          offset
     139      20    2622       0      71 1.8438779223756                        
     140      20    2585       0      71 1.3001028151943                        
     141      20    2586       0      71 1.2981256305282                        
     142      20    2612       0      71 1.3491655324942                        
     143      20    2613       0      71 1.3130633776605                        
     144      20    2672       0      71 1.4841282938011                        
     145      20    2456       0      71  1.707363890186                        
     146      20    2457       0      71 1.7673207602736                        
     147      20    3722       0      71 1.8805382629324                        
     148      20    3961       0      71 2.0036458717017                        
     149      20    3770       0      71 2.0247836688067                        
     150      20    3771       0      71 1.8820562103028                        
     151      20    3823       0      71 1.8131595732289                        
     152      20    3824       0      71 2.1181266700404                        
     153      20    3927       0      71 1.6837562754296                        
     154      20    3843       0      71 1.4134149501625                        
     155      20    3844       0      71 1.2865086593388                        
     156      20    3943       0      71 1.9088894998977                        
     157      20    3789       0      71 2.2725306182684                        
     158      20    3790       0      71  1.882272906339                        
$ ... 15 like lines cut
*ELEMENT_DISCRETE
$#   eid     pid      n1      n2     vid               s      pf          offset
     174      20    2622       0      72 3.6877558447512                        
     175      20    2585       0      73 2.6002056303886                        
     176      20    2586       0      74 2.5962512610564                        
     177      20    2612       0      75 2.6983310649883                        
     178      20    2613       0      76  2.626126755321                        
     179      20    2672       0      77 2.9682565876022                        
     180      20    2456       0      78 3.4147277803719                        
     181      20    2457       0      79 3.5346415205472                        
     182      20    3722       0      80 3.7610765258649                        
     183      20    3961       0      81 4.0072917434035                        
     184      20    3770       0      82 4.0495673376133                        
     185      20    3771       0      83 3.7641124206056                        
     186      20    3823       0      84 3.6263191464578                        
     187      20    3824       0      85 4.2362533400808                        
     188      20    3927       0      86 3.3675125508592                        
     189      20    3843       0      87 2.8268299003251                        
     190      20    3844       0      88 2.5730173186776                        
     191      20    3943       0      89 3.8177789997953                        
     192      20    3789       0      90 4.5450612365368                        
     193      20    3790       0      91  3.764545812678                        
$ ... 15 like lines cut
$$ spring at right-superior-pulmonary-vein$$
*DEFINE_SD_ORIENTATION
$#     vid       iop        xt        yt        zt      nid1      nid2
       107         00.757367340.33461864-0.5607362                    
*DEFINE_SD_ORIENTATION
$#     vid       iop        xt        yt        zt      nid1      nid2
       108         00.16409704-0.9283337-0.3335698                    
       109         00.00035081-0.8571725-0.5150294                    
       110         0-0.1443791-0.7479658 -0.647844                    
       111         0-0.2739953-0.6101983-0.7433604                    
       112         0-0.3777673-0.4663924-0.7998562                    
       113         0-0.4729994-0.2960219-0.8298449                    
       114         0-0.5523525-0.1169187-0.8253706                    
       115         0-0.60641650.07309486-0.7917803                    
       116         0-0.63844250.27522035-0.7187802                    
       117         0-0.7056627 0.4153523-0.5740407                    
       118         0-0.61291770.61652255-0.4941981                    
       119         0-0.63161640.71355384-0.3031528                    
       120         0-0.47479690.86748372-0.1484584                    
       121         0-0.33394840.938592910.08672834                    
       122         0-0.18009630.93811437 0.2958154                    
       123         0-0.04022370.887742820.45857904                    
       124         00.097984880.797597150.59517875                    
       125         00.22857275 0.67466830.70183843                    
       126         00.342911140.531841980.77431005                    
       127         00.44828059   0.361290.81762709                    
$ ... 8 like lines cut
*ELEMENT_DISCRETE
$#   eid     pid      n1      n2     vid               s      pf          offset
     209      20    3817       0     107 1.8030838528984                        
     210      20    3818       0     107 1.7542964141971                        
     211      20    3795       0     107 1.7258379203227                        
     212      20    3796       0     107 1.7361873962802                        
     213      20    3878       0     107  1.472124958413                        
     214      20    3879       0     107 1.7376158323163                        
     215      20    3858       0     107 1.7931619876923                        
     216      20    3859       0     107  1.874972789316                        
     217      20    3954       0     107 2.0668978698601                        
     218      20    3981       0     107 1.1522660708167                        
     219      20    3978       0     107  1.622984504166                        
     220      20    3951       0     107 1.3188869382706                        
     221      20    3802       0     107 1.7239338736564                        
     222      20    3803       0     107 1.8935143857132                        
     223      20    3799       0     107 1.9766187382862                        
     224      20    3800       0     107 1.9430924594415                        
     225      20    3846       0     107 1.9486051303971                        
     226      20    3847       0     107 1.8804345051204                        
     227      20    3956       0     107 1.8981020121187                        
     228      20    3767       0     107 1.9516283236161                        
$ ... 8 like lines cut
*ELEMENT_DISCRETE
$#   eid     pid      n1      n2     vid               s      pf          offset
     237      20    3817       0     108 3.6061677057967                        
     238      20    3818       0     109 3.5085928283942                        
     239      20    3795       0     110 3.4516758406454                        
     240      20    3796       0     111 3.4723747925603                        
     241      20    3878       0     112  2.944249916826                        
     242      20    3879       0     113 3.4752316646326                        
     243      20    3858       0     114 3.5863239753845                        
     244      20    3859       0     115  3.749945578632                        
     245      20    3954       0     116 4.1337957397202                        
     246      20    3981       0     117 2.3045321416335                        
     247      20    3978       0     118 3.2459690083319                        
     248      20    3951       0     119 2.6377738765411                        
     249      20    3802       0     120 3.4478677473129                        
     250      20    3803       0     121 3.7870287714263                        
     251      20    3799       0     122 3.9532374765724                        
     252      20    3800       0     123 3.8861849188831                        
     253      20    3846       0     124 3.8972102607943                        
     254      20    3847       0     125 3.7608690102408                        
     255      20    3956       0     126 3.7962040242373                        
     256      20    3767       0     127 3.9032566472323                        
$ ... 8 like lines cut
$$ spring at superior-vena-cava$$
*DEFINE_SD_ORIENTATION
$#     vid       iop        xt        yt        zt      nid1      nid2
       136         0-0.2840743-0.5781088-0.7649131                    
*DEFINE_SD_ORIENTATION
$#     vid       iop        xt        yt        zt      nid1      nid2
       137         00.815815240.26715605-0.5129066                    
       138         00.851778420.21041361-0.4797912                    
       139         00.906096930.09544445-0.4121635                    
       140         00.94212703-0.0244258-0.3343651                    
       141         00.95807529-0.1576855-0.2392217                    
       142         00.94031595-0.3230559-0.1069615                    
       143         00.87384064-0.48458160.03979001                    
       144         00.73078547-0.64736030.21651142                    
       145         00.53856661-0.75643740.37114491                    
       146         00.36504449-0.80270690.47159738                    
       147         00.23541919-0.81480750.52977968                    
       148         00.11505264-0.81176430.57253967                    
       149         0-0.0164353 -0.7940210.60766808                    
       150         0-0.1510773-0.76044970.63157887                    
       151         0-0.2876338  -0.709920.64286894                    
       152         0-0.4178383 -0.6444880.64034865                    
       153         0-0.5389276-0.56561730.62420679                    
       154         0-0.6462655-0.47557690.59679766                    
       155         0-0.7407211-0.37568390.55695053                    
       156         0-0.8257808-0.26609870.49727009                    
$ ... 18 like lines cut
*ELEMENT_DISCRETE
$#   eid     pid      n1      n2     vid               s      pf          offset
     265      20   18123       0     1360.82441664026199                        
     266      20   17965       0     136 1.3011027881388                        
     267      20   21581       0     136  1.913871727127                        
     268      20   21633       0     136 1.6353712260883                        
     269      20   21634       0     136 1.5614030777775                        
     270      20   21625       0     136 1.2847304972141                        
     271      20   21626       0     136 1.6242501926664                        
     272      20   21620       0     136 2.0968289254435                        
     273      20   21621       0     136 1.7970149234468                        
     274      20   21630       0     136 1.7507260986814                        
     275      20   21631       0     136 1.3906784176433                        
     276      20   21691       0     136 1.7459308555902                        
     277      20   21652       0     136 1.7471603041995                        
     278      20   21653       0     136 2.1029963606505                        
     279      20   21645       0     136  1.675908771501                        
     280      20   21646       0     136 1.6404124890454                        
     281      20   21636       0     136 1.6388670677108                        
     282      20   21637       0     136 1.9177019320077                        
     283      20   21649       0     136 1.3914616143565                        
     284      20   21650       0     136 1.5745927905451                        
$ ... 18 like lines cut
*ELEMENT_DISCRETE
$#   eid     pid      n1      n2     vid               s      pf          offset
     303      20   18123       0     137  1.648833280524                        
     304      20   17965       0     138 2.6022055762776                        
     305      20   21581       0     139 3.8277434542541                        
     306      20   21633       0     140 3.2707424521766                        
     307      20   21634       0     141  3.122806155555                        
     308      20   21625       0     142 2.5694609944282                        
     309      20   21626       0     143 3.2485003853328                        
     310      20   21620       0     144 4.1936578508869                        
     311      20   21621       0     145 3.5940298468936                        
     312      20   21630       0     146 3.5014521973627                        
     313      20   21631       0     147 2.7813568352867                        
     314      20   21691       0     148 3.4918617111804                        
     315      20   21652       0     149  3.494320608399                        
     316      20   21653       0     150  4.205992721301                        
     317      20   21645       0     151 3.3518175430019                        
     318      20   21646       0     152 3.2808249780909                        
     319      20   21636       0     153 3.2777341354217                        
     320      20   21637       0     154 3.8354038640155                        
     321      20   21649       0     155  2.782923228713                        
     322      20   21650       0     156 3.1491855810902                        
$ ... 18 like lines cut
*END