*KEYWORD
*PART
$#                                                             heading
SupportSpring                                                         
$#     pid     secid       mid     eosid      hgid      grav    adpopt      tmid
        19         3         9                                                  
*SECTION_DISCRETE
$#   secid       dro        kd        v0        cl        fd
         3         0       0.0       0.0       0.0       0.0
$#     cdl       tdl
       0.0       0.0
*MAT_SPRING_ELASTIC
$#     mid         k
         9     2e+13
$$ spring at pulmonary-valve$$
*DEFINE_SD_ORIENTATION
$#     vid       iop        xt        yt        zt      nid1      nid2
         1         00.41068319-0.6007101-0.6859203                    
*DEFINE_SD_ORIENTATION
$#     vid       iop        xt        yt        zt      nid1      nid2
         2         00.035805780.76124186-0.6474788                    
         3         00.092757310.77490078-0.6252398                    
         4         0 0.16287680.78764123-0.5942158                    
         5         00.232160830.79561916-0.5595458                    
         6         00.296665080.79896627-0.5231087                    
         7         00.350117630.80748538-0.4747473                    
         8         00.42620154 0.7651921 -0.482528                    
         9         0 0.4569235 0.7933994 -0.402167                    
        10         00.520324570.77170517-0.3656959                    
        11         00.584981910.75047128-0.3075533                    
        12         00.662887720.69605021-0.2758514                    
        13         00.695511760.69687039-0.1750287                    
        14         00.759371880.64155879-0.1084282                    
        15         00.808914260.58710405-0.0310896                    
        16         00.850701020.523286560.04978903                    
        17         00.875271520.470884650.11030599                    
        18         0 0.89476880.411138410.17422402                    
        19         00.907541420.344533740.24013553                    
        20         00.926490790.257657540.27427615                    
        21         00.891252770.284527320.35314686                    
$ ... 49 like lines cut
*ELEMENT_DISCRETE
$#   eid     pid      n1      n2     vid               s      pf          offset
       1      19   28453       0       1 1.1520747045838                        
       2      19   17920       0       1 1.3051884796341                        
       3      19   28432       0       1 1.2614881505973                        
       4      19   28433       0       1 1.2155902063402                        
       5      19   28488       0       1 1.2694560314608                        
       6      19   28489       0       1 1.2796708982537                        
       7      19   28539       0       1 1.9129603493191                        
       8      19   28458       0       1 1.6431585819424                        
       9      19   28459       0       1 1.8161357974499                        
      10      19   28536       0       1 1.6810016095668                        
      11      19   28549       0       1 1.8183082516993                        
      12      19   28537       0       1 1.9906200027453                        
      13      19   28450       0       1 1.7659525232469                        
      14      19   28451       0       1 1.7832870671156                        
      15      19   28321       0       1 1.8118788941381                        
      16      19   30018       0       1 1.4926389567869                        
      17      19   30101       0       1 1.1760414337777                        
      18      19   30157       0       1  1.277447959044                        
      19      19   30152       0       1 1.7329436854443                        
      20      19   30153       0       10.85279288782656                        
$ ... 49 like lines cut
*ELEMENT_DISCRETE
$#   eid     pid      n1      n2     vid               s      pf          offset
      70      19   28453       0       2 2.3041494091676                        
      71      19   17920       0       3 2.6103769592682                        
      72      19   28432       0       4 2.5229763011946                        
      73      19   28433       0       5 2.4311804126804                        
      74      19   28488       0       6 2.5389120629217                        
      75      19   28489       0       7 2.5593417965074                        
      76      19   28539       0       8 3.8259206986381                        
      77      19   28458       0       9 3.2863171638847                        
      78      19   28459       0      10 3.6322715948997                        
      79      19   28536       0      11 3.3620032191336                        
      80      19   28549       0      12 3.6366165033985                        
      81      19   28537       0      13 3.9812400054906                        
      82      19   28450       0      14 3.5319050464938                        
      83      19   28451       0      15 3.5665741342313                        
      84      19   28321       0      16 3.6237577882763                        
      85      19   30018       0      17 2.9852779135739                        
      86      19   30101       0      18 2.3520828675553                        
      87      19   30157       0      19 2.5548959180879                        
      88      19   30152       0      20 3.4658873708885                        
      89      19   30153       0      21 1.7055857756531                        
$ ... 49 like lines cut
$$ spring at right-inferior-pulmonary-vein$$
*DEFINE_SD_ORIENTATION
$#     vid       iop        xt        yt        zt      nid1      nid2
        71         00.85410699-0.51764440.05045333                    
*DEFINE_SD_ORIENTATION
$#     vid       iop        xt        yt        zt      nid1      nid2
        72         00.304523030.41866663-0.8555606                    
        73         00.363809830.52643746-0.7684439                    
        74         0 0.41875720.62543303-0.6583889                    
        75         00.464674120.71449623-0.5230422                    
        76         00.497589620.78363858-0.3719074                    
        77         00.516765490.83192426-0.2021273                    
        78         00.519386540.85436707-0.0171617                    
        79         00.502767070.846065330.17719686                    
        80         00.463870050.801525750.37733412                    
        81         00.405552880.723152980.55908553                    
        82         00.333132940.618641020.71155164                    
        83         00.249628740.492823270.83355307                    
        84         00.163815220.359598140.91861513                    
        85         00.076712180.221140110.97222029                    
        86         0-0.00530830.087224040.99617458                    
        87         0-0.0930412-0.0502602 0.9943929                    
        88         0-0.1717678-0.1888713 0.9668627                    
        89         0-0.2486662-0.3216372 0.9136272                    
        90         0-0.3180323-0.44362930.83788337                    
        91         0-0.3825422-0.56030680.73465486                    
$ ... 15 like lines cut
*ELEMENT_DISCRETE
$#   eid     pid      n1      n2     vid               s      pf          offset
     139      19    2636       0      71 1.7992875792101                        
     140      19    2599       0      71 1.2677519076705                        
     141      19    2600       0      71 1.2905524712469                        
     142      19    2626       0      71 1.3513400481634                        
     143      19    2627       0      71 1.3234969107087                        
     144      19    2686       0      71 1.5132118969644                        
     145      19    2470       0      71 1.6890065903181                        
     146      19    2471       0      71 1.7592297690806                        
     147      19    3730       0      71 1.8942774625916                        
     148      19    3972       0      71 1.9832524855418                        
     149      19    3778       0      71 1.9605541128012                        
     150      19    3779       0      71 1.8403447410853                        
     151      19    3831       0      71 1.8109531238104                        
     152      19    3832       0      71 2.2246752874631                        
     153      19    3939       0      71 1.7547950986957                        
     154      19    3851       0      71 1.4795370508777                        
     155      19    3852       0      71 1.3575208815315                        
     156      19    3955       0      71 2.1606797791529                        
     157      19    3797       0      71 1.9020089816191                        
     158      19    3798       0      71 1.8593413878227                        
$ ... 15 like lines cut
*ELEMENT_DISCRETE
$#   eid     pid      n1      n2     vid               s      pf          offset
     174      19    2636       0      72 3.5985751584201                        
     175      19    2599       0      73  2.535503815341                        
     176      19    2600       0      74 2.5811049424938                        
     177      19    2626       0      75 2.7026800963269                        
     178      19    2627       0      76 2.6469938214175                        
     179      19    2686       0      77 3.0264237939288                        
     180      19    2470       0      78 3.3780131806362                        
     181      19    2471       0      79 3.5184595381612                        
     182      19    3730       0      80 3.7885549251832                        
     183      19    3972       0      81 3.9665049710837                        
     184      19    3778       0      82 3.9211082256025                        
     185      19    3779       0      83 3.6806894821705                        
     186      19    3831       0      84 3.6219062476208                        
     187      19    3832       0      85 4.4493505749262                        
     188      19    3939       0      86 3.5095901973915                        
     189      19    3851       0      87 2.9590741017554                        
     190      19    3852       0      88  2.715041763063                        
     191      19    3955       0      89 4.3213595583058                        
     192      19    3797       0      90 3.8040179632381                        
     193      19    3798       0      91 3.7186827756454                        
$ ... 15 like lines cut
$$ spring at right-superior-pulmonary-vein$$
*DEFINE_SD_ORIENTATION
$#     vid       iop        xt        yt        zt      nid1      nid2
       107         00.756974940.33511661-0.5609686                    
*DEFINE_SD_ORIENTATION
$#     vid       iop        xt        yt        zt      nid1      nid2
       108         00.16429607 -0.928121-0.3340632                    
       109         0 0.0005127-0.8568995-0.5154832                    
       110         0-0.1442324-0.7476607-0.6482287                    
       111         0-0.2738447-0.6098789-0.7436779                    
       112         0-0.3776088 -0.466086-0.8001096                    
       113         0-0.4728107-0.2957145-0.8300621                    
       114         0-0.5521201-0.1166128-0.8255694                    
       115         0-0.60613250.07338581-0.7919709                    
       116         0-0.63810070.27548037 -0.718984                    
       117         0-0.7052776 0.4156084-0.5743284                    
       118         0-0.62325090.61215532-0.4866459                    
       119         0-0.63122070.71373515-0.3035499                    
       120         0-0.47445850.86759605-0.1488833                    
       121         0-0.33368440.938730820.08625066                    
       122         0   -0.17990.938300760.29534333                    
       123         0 -0.0400710.887968890.45815453                    
       124         00.098120550.797861710.59480169                    
       125         0 0.22870970.674960910.70151239                    
       126         00.343063690.53215145 0.7740298                    
       127         00.448469120.361618940.81737824                    
$ ... 8 like lines cut
*ELEMENT_DISCRETE
$#   eid     pid      n1      n2     vid               s      pf          offset
     209      19    3825       0     107 1.8025890754254                        
     210      19    3826       0     107 1.7732742009437                        
     211      19    3803       0     107 1.7482976093927                        
     212      19    3804       0     107  1.772898892426                        
     213      19    3886       0     107 1.5291245959947                        
     214      19    3887       0     107 1.7830002848332                        
     215      19    3866       0     107 1.7854452863892                        
     216      19    3867       0     107 1.8205638290443                        
     217      19    3892       0     107 2.1041683345309                        
     218      19    3893       0     107 1.2274500196896                        
     219      19    3988       0     107 1.4520849853919                        
     220      19    3963       0     107 1.2057622173203                        
     221      19    3810       0     107   1.73603622907                        
     222      19    3811       0     107 1.8728381827837                        
     223      19    3807       0     107 1.8186310358914                        
     224      19    3808       0     107 1.8600122704234                        
     225      19    3854       0     107 1.8578125864552                        
     226      19    3855       0     107 1.8124776200434                        
     227      19    3967       0     107 1.8650798743144                        
     228      19    3775       0     107 1.9577381313418                        
$ ... 8 like lines cut
*ELEMENT_DISCRETE
$#   eid     pid      n1      n2     vid               s      pf          offset
     237      19    3825       0     108 3.6051781508508                        
     238      19    3826       0     109 3.5465484018873                        
     239      19    3803       0     110 3.4965952187854                        
     240      19    3804       0     111 3.5457977848521                        
     241      19    3886       0     112 3.0582491919893                        
     242      19    3887       0     113 3.5660005696664                        
     243      19    3866       0     114 3.5708905727783                        
     244      19    3867       0     115 3.6411276580887                        
     245      19    3892       0     116 4.2083366690618                        
     246      19    3893       0     117 2.4549000393791                        
     247      19    3988       0     118 2.9041699707838                        
     248      19    3963       0     119 2.4115244346406                        
     249      19    3810       0     120 3.4720724581401                        
     250      19    3811       0     121 3.7456763655673                        
     251      19    3807       0     122 3.6372620717828                        
     252      19    3808       0     123 3.7200245408469                        
     253      19    3854       0     124 3.7156251729103                        
     254      19    3855       0     125 3.6249552400868                        
     255      19    3967       0     126 3.7301597486288                        
     256      19    3775       0     127 3.9154762626836                        
$ ... 8 like lines cut
$$ spring at superior-vena-cava$$
*DEFINE_SD_ORIENTATION
$#     vid       iop        xt        yt        zt      nid1      nid2
       136         0-0.2840514-0.5780919-0.7649344                    
*DEFINE_SD_ORIENTATION
$#     vid       iop        xt        yt        zt      nid1      nid2
       137         00.815727330.26741862-0.5129095                    
       138         00.85188604 0.2102008-0.4796934                    
       139         00.906175470.09521457-0.4120439                    
       140         00.94217051  -0.02467-0.3342247                    
       141         00.95807346-0.1579336-0.2390653                    
       142         00.94025911-0.3232703-0.1068135                    
       143         00.87374725-0.48474050.03990522                    
       144         00.73071468 -0.6474280.21654786                    
       145         00.53857753-0.75644710.37110919                    
       146         00.36512502-0.8027077 0.4715337                    
       147         00.23553248-0.81481680.52971504                    
       148         00.11518578-0.81178670.57248112                    
       149         0-0.0162835-0.79406190.60761877                    
       150         0 -0.150911-0.76051290.63154252                    
       151         0-0.2874536-0.71001110.64284891                    
       152         0-0.4176521-0.64460850.64034875                    
       153         0 -0.538746-0.56576530.62422943                    
       154         0-0.6461004-0.47574540.59684212                    
       155         0 -0.740576-0.37587180.55701674                    
       156         0-0.8256595-0.26630780.49735966                    
$ ... 18 like lines cut
*ELEMENT_DISCRETE
$#   eid     pid      n1      n2     vid               s      pf          offset
     265      19   18098       0     1360.90315178819052                        
     266      19   17940       0     136 1.3577936564928                        
     267      19   21556       0     136 1.9127452059537                        
     268      19   21608       0     136 1.5810249994712                        
     269      19   21609       0     136 1.5053668542252                        
     270      19   21600       0     136 1.2278933769026                        
     271      19   21601       0     136 1.6248025129187                        
     272      19   21595       0     136 2.0968289254435                        
     273      19   21596       0     136 1.7970149234468                        
     274      19   21605       0     136 1.7507260986814                        
     275      19   21606       0     136 1.3906784176433                        
     276      19   21666       0     136 1.7459308555902                        
     277      19   21627       0     136 1.7471603041995                        
     278      19   21628       0     136 2.1029963606505                        
     279      19   21620       0     136 1.6805024584529                        
     280      19   21621       0     136 1.6494233471537                        
     281      19   21611       0     136 1.6388670677108                        
     282      19   21612       0     136 1.9222709818257                        
     283      19   21624       0     136 1.3914616143565                        
     284      19   21625       0     136 1.5745927905451                        
$ ... 18 like lines cut
*ELEMENT_DISCRETE
$#   eid     pid      n1      n2     vid               s      pf          offset
     303      19   18098       0     137  1.806303576381                        
     304      19   17940       0     138 2.7155873129857                        
     305      19   21556       0     139 3.8254904119075                        
     306      19   21608       0     140 3.1620499989425                        
     307      19   21609       0     141 3.0107337084504                        
     308      19   21600       0     142 2.4557867538051                        
     309      19   21601       0     143 3.2496050258373                        
     310      19   21595       0     144 4.1936578508869                        
     311      19   21596       0     145 3.5940298468936                        
     312      19   21605       0     146 3.5014521973627                        
     313      19   21606       0     147 2.7813568352867                        
     314      19   21666       0     148 3.4918617111804                        
     315      19   21627       0     149  3.494320608399                        
     316      19   21628       0     150  4.205992721301                        
     317      19   21620       0     151 3.3610049169059                        
     318      19   21621       0     152 3.2988466943074                        
     319      19   21611       0     153 3.2777341354217                        
     320      19   21612       0     154 3.8445419636514                        
     321      19   21624       0     155  2.782923228713                        
     322      19   21625       0     156 3.1491855810902                        
$ ... 18 like lines cut
*END