*KEYWORD
*MAT_RIGID
$#     mid        ro         e        pr         n    couple         m     alias
         8     0.001       1.0                 0.0       0.0       0.0          
$#     cmo      con1      con2
       0.0                    
$#co_or_a1        a2        a3        v1        v2        v3
                                                            
*SECTION_SHELL
$#   secid    elform      shrf       nip     propt   qr_irid     icomp     setyp
         2         4    0.8333         3       1.0         0         0         1
$#      t1        t2        t3        t4      nloc     marea      idof    edgset
       1.0       0.0       0.0       0.0       0.0       0.0       0.0         0
*PART
$#                                                             heading
mitral-valve                                                          
$#     pid     secid       mid     eosid      hgid      grav    adpopt      tmid
         8         2         8                                                  
*PART
$#                                                             heading
aortic-valve                                                          
$#     pid     secid       mid     eosid      hgid      grav    adpopt      tmid
         9         2         8                                                  
*PART
$#                                                             heading
pulmonary-valve                                                       
$#     pid     secid       mid     eosid      hgid      grav    adpopt      tmid
        10         2         8                                                  
*PART
$#                                                             heading
tricuspid-valve                                                       
$#     pid     secid       mid     eosid      hgid      grav    adpopt      tmid
        11         2         8                                                  
*PART
$#                                                             heading
left-inferior-pulmonary-vein                                          
$#     pid     secid       mid     eosid      hgid      grav    adpopt      tmid
        12         2         8                                                  
*PART
$#                                                             heading
left-superior-pulmonary-vein                                          
$#     pid     secid       mid     eosid      hgid      grav    adpopt      tmid
        13         2         8                                                  
*PART
$#                                                             heading
left-atrium-appendage                                                 
$#     pid     secid       mid     eosid      hgid      grav    adpopt      tmid
        14         2         8                                                  
*PART
$#                                                             heading
right-inferior-pulmonary-vein                                         
$#     pid     secid       mid     eosid      hgid      grav    adpopt      tmid
        15         2         8                                                  
*PART
$#                                                             heading
right-superior-pulmonary-vein                                         
$#     pid     secid       mid     eosid      hgid      grav    adpopt      tmid
        16         2         8                                                  
*PART
$#                                                             heading
inferior-vena-cava                                                    
$#     pid     secid       mid     eosid      hgid      grav    adpopt      tmid
        17         2         8                                                  
*PART
$#                                                             heading
superior-vena-cava                                                    
$#     pid     secid       mid     eosid      hgid      grav    adpopt      tmid
        18         2         8                                                  
*ELEMENT_SHELL
$#   eid     pid      n1      n2      n3      n4      n5      n6      n7      n8
       1       8   69755    7862    7863                                        
       2       8   69755    7863   11607                                        
       3       8   69755   11607   11712                                        
       4       8   69755   11712   11621                                        
       5       8   69755   11621   11622                                        
       6       8   69755   11622   11486                                        
       7       8   69755   11486   11487                                        
       8       8   69755   11487   11488                                        
       9       8   69755   11488   11466                                        
      10       8   69755   11466   11467                                        
      11       8   69755   11467   11550                                        
      12       8   69755   11550   11409                                        
      13       8   69755   11409   11410                                        
      14       8   69755   11410   11396                                        
      15       8   69755   11396   11397                                        
      16       8   69755   11397   11518                                        
      17       8   69755   11518    9615                                        
      18       8   69755    9615    9616                                        
      19       8   69755    9616    9780                                        
      20       8   69755    9780    9698                                        
$ ... 49 like lines cut
*ELEMENT_SHELL
$#   eid     pid      n1      n2      n3      n4      n5      n6      n7      n8
      70       9   69756   11419   11420                                        
      71       9   69756   11424   11419                                        
      72       9   69756   11423   11424                                        
      73       9   69756   11457   11423                                        
      74       9   69756   11456   11457                                        
      75       9   69756   11554   11456                                        
      76       9   69756   11430   11554                                        
      77       9   69756   11429   11430                                        
      78       9   69756   11446   11429                                        
      79       9   69756   11445   11446                                        
      80       9   69756   11566   11445                                        
      81       9   69756   11470   11566                                        
      82       9   69756   11469   11470                                        
      83       9   69756   11449   11469                                        
      84       9   69756   11448   11449                                        
      85       9   69756   11585   11448                                        
      86       9   69756   11427   11585                                        
      87       9   69756   11426   11427                                        
      88       9   69756   11546   11426                                        
      89       9   69756   11463   11546                                        
$ ... 26 like lines cut
*ELEMENT_SHELL
$#   eid     pid      n1      n2      n3      n4      n5      n6      n7      n8
     116      10   69757   17137   28517                                        
     117      10   69757   28535   17137                                        
     118      10   69757   28399   28535                                        
     119      10   69757   28398   28399                                        
     120      10   69757   28429   28398                                        
     121      10   69757   28428   28429                                        
     122      10   69757   28414   28428                                        
     123      10   69757   28413   28414                                        
     124      10   69757   28498   28413                                        
     125      10   69757   28408   28498                                        
     126      10   69757   28407   28408                                        
     127      10   69757   28467   28407                                        
     128      10   69757   28533   28467                                        
     129      10   69757   28532   28533                                        
     130      10   69757   28439   28532                                        
     131      10   69757   28438   28439                                        
     132      10   69757   28316   28438                                        
     133      10   69757   28315   28316                                        
     134      10   69757   30023   28315                                        
     135      10   69757   30096   30023                                        
$ ... 49 like lines cut
*ELEMENT_SHELL
$#   eid     pid      n1      n2      n3      n4      n5      n6      n7      n8
     185      11   69758   28327   28328                                        
     186      11   69758   28448   28327                                        
     187      11   69758   28447   28448                                        
     188      11   69758   28411   28447                                        
     189      11   69758   28410   28411                                        
     190      11   69758   28405   28410                                        
     191      11   69758   28404   28405                                        
     192      11   69758   28500   28404                                        
     193      11   69758   28396   28500                                        
     194      11   69758   28395   28396                                        
     195      11   69758   28417   28395                                        
     196      11   69758   28416   28417                                        
     197      11   69758   28426   28416                                        
     198      11   69758   28425   28426                                        
     199      11   69758   28436   28425                                        
     200      11   69758   28435   28436                                        
     201      11   69758   28337   28435                                        
     202      11   69758   31108   28337                                        
     203      11   69758   31207   31108                                        
     204      11   69758   31206   31207                                        
$ ... 64 like lines cut
*ELEMENT_SHELL
$#   eid     pid      n1      n2      n3      n4      n5      n6      n7      n8
     269      12   69759    2431    2432                                        
     270      12   69759    2432    2437                                        
     271      12   69759    2437    2590                                        
     272      12   69759    2590    2591                                        
     273      12   69759    2591    2605                                        
     274      12   69759    2605    2606                                        
     275      12   69759    2606    2617                                        
     276      12   69759    2617    2618                                        
     277      12   69759    2618    2629                                        
     278      12   69759    2629    2630                                        
     279      12   69759    2630    2611                                        
     280      12   69759    2611    2612                                        
     281      12   69759    2612    2644                                        
     282      12   69759    2644    2645                                        
     283      12   69759    2645    2560                                        
     284      12   69759    2560    2561                                        
     285      12   69759    2561    2632                                        
     286      12   69759    2632    2633                                        
     287      12   69759    2633    2584                                        
     288      12   69759    2584    2585                                        
$ ... 10 like lines cut
*ELEMENT_SHELL
$#   eid     pid      n1      n2      n3      n4      n5      n6      n7      n8
     299      13   69760    2436    2434                                        
     300      13   69760    3894    2436                                        
     301      13   69760    3782    3894                                        
     302      13   69760    3781    3782                                        
     303      13   69760    3864    3781                                        
     304      13   69760    3863    3864                                        
     305      13   69760    3975    3863                                        
     306      13   69760    4026    3975                                        
     307      13   69760    4025    4026                                        
     308      13   69760    4006    4025                                        
     309      13   69760    3884    4006                                        
     310      13   69760    3883    3884                                        
     311      13   69760    3877    3883                                        
     312      13   69760    3876    3877                                        
     313      13   69760    3957    3876                                        
     314      13   69760    3987    3957                                        
     315      13   69760    3873    3987                                        
     316      13   69760    3872    3873                                        
     317      13   69760    3881    3872                                        
     318      13   69760    3880    3881                                        
$ ... 6 like lines cut
*ELEMENT_SHELL
$#   eid     pid      n1      n2      n3      n4      n5      n6      n7      n8
     325      14   69761    2609    2443                                        
     326      14   69761    2608    2609                                        
     327      14   69761    2555    2608                                        
     328      14   69761    2554    2555                                        
     329      14   69761    2661    2554                                        
     330      14   69761    2660    2661                                        
     331      14   69761    2742    2660                                        
     332      14   69761    2642    2742                                        
     333      14   69761    2641    2642                                        
     334      14   69761    2615    2641                                        
     335      14   69761    2614    2615                                        
     336      14   69761    2447    2614                                        
     337      14   69761    2446    2447                                        
     338      14   69761    3731    2446                                        
     339      14   69761    3792    3731                                        
     340      14   69761    3791    3792                                        
     341      14   69761    3759    3791                                        
     342      14   69761    3758    3759                                        
     343      14   69761    3773    3758                                        
     344      14   69761    3772    3773                                        
$ ... 24 like lines cut
*ELEMENT_SHELL
$#   eid     pid      n1      n2      n3      n4      n5      n6      n7      n8
     369      15   69762    2468    2635                                        
     370      15   69762    3729    2468                                        
     371      15   69762    3973    3729                                        
     372      15   69762    3861    3973                                        
     373      15   69762    3848    3861                                        
     374      15   69762    3847    3848                                        
     375      15   69762    3835    3847                                        
     376      15   69762    3834    3835                                        
     377      15   69762    3858    3834                                        
     378      15   69762    3857    3858                                        
     379      15   69762    3841    3857                                        
     380      15   69762    3840    3841                                        
     381      15   69762    3844    3840                                        
     382      15   69762    3843    3844                                        
     383      15   69762    3798    3843                                        
     384      15   69762    3797    3798                                        
     385      15   69762    3955    3797                                        
     386      15   69762    3852    3955                                        
     387      15   69762    3851    3852                                        
     388      15   69762    3939    3851                                        
$ ... 15 like lines cut
*ELEMENT_SHELL
$#   eid     pid      n1      n2      n3      n4      n5      n6      n7      n8
     404      16   69763    3761    3762                                        
     405      16   69763    3981    3761                                        
     406      16   69763    3817    3981                                        
     407      16   69763    3816    3817                                        
     408      16   69763    3870    3816                                        
     409      16   69763    3869    3870                                        
     410      16   69763    3776    3869                                        
     411      16   69763    3775    3776                                        
     412      16   69763    3967    3775                                        
     413      16   69763    3855    3967                                        
     414      16   69763    3854    3855                                        
     415      16   69763    3808    3854                                        
     416      16   69763    3807    3808                                        
     417      16   69763    3811    3807                                        
     418      16   69763    3810    3811                                        
     419      16   69763    3963    3810                                        
     420      16   69763    3988    3963                                        
     421      16   69763    3893    3988                                        
     422      16   69763    3892    3893                                        
     423      16   69763    3867    3892                                        
$ ... 8 like lines cut
*ELEMENT_SHELL
$#   eid     pid      n1      n2      n3      n4      n5      n6      n7      n8
     432      17   69764   17930   17931                                        
     433      17   69764   17931   19471                                        
     434      17   69764   19471   19568                                        
     435      17   69764   19568   19569                                        
     436      17   69764   19569   19652                                        
     437      17   69764   19652   19580                                        
     438      17   69764   19580   19581                                        
     439      17   69764   19581   19589                                        
     440      17   69764   19589   19590                                        
     441      17   69764   19590   19663                                        
     442      17   69764   19663   19574                                        
     443      17   69764   19574   19575                                        
     444      17   69764   19575   19593                                        
     445      17   69764   19593   19594                                        
     446      17   69764   19594   19682                                        
     447      17   69764   19682   19680                                        
     448      17   69764   19680   19621                                        
     449      17   69764   19621   19599                                        
     450      17   69764   19599   19600                                        
     451      17   69764   19600   19586                                        
$ ... 13 like lines cut
*ELEMENT_SHELL
$#   eid     pid      n1      n2      n3      n4      n5      n6      n7      n8
     465      18   69765   18098   17940                                        
     466      18   69765   17940   21556                                        
     467      18   69765   21556   21608                                        
     468      18   69765   21608   21609                                        
     469      18   69765   21609   21600                                        
     470      18   69765   21600   21601                                        
     471      18   69765   21601   21595                                        
     472      18   69765   21595   21596                                        
     473      18   69765   21596   21605                                        
     474      18   69765   21605   21606                                        
     475      18   69765   21606   21666                                        
     476      18   69765   21666   21627                                        
     477      18   69765   21627   21628                                        
     478      18   69765   21628   21620                                        
     479      18   69765   21620   21621                                        
     480      18   69765   21621   21611                                        
     481      18   69765   21611   21612                                        
     482      18   69765   21612   21624                                        
     483      18   69765   21624   21625                                        
     484      18   69765   21625   21671                                        
$ ... 18 like lines cut
*END