*KEYWORD
*DEFINE_CURVE_TITLE
$#                                                                         title
ca2+ of Left ventricle                                                          
$#    lcid      sidr       sfa       sfo      offa      offo    dattyp     lcint
         1         0       1.0       1.0       0.0       0.0         0     10000
$#                a1                  o1
                 0.0                 0.0
                 8.0 4.34999999999999964
                16.0 4.34999999999999964
                24.0 4.34999999999999964
                32.0 4.34999999999999964
                40.0 4.34999999999999964
                48.0 4.34999999999999964
                56.0 4.34999999999999964
                64.0 4.34999999999999964
                72.0 4.34999999999999964
                80.0 4.34999999999999964
                88.0 4.34999999999999964
                96.0 4.34999999999999964
               104.0 4.34999999999999964
               112.0 4.34999999999999964
               120.0 4.34999999999999964
               128.0 4.34999999999999964
               136.0 4.34999999999999964
               144.0 4.34999999999999964
               152.0 4.34999999999999964
$ ... 481 like lines cut
*MAT_295
$#     mid       rho      aopt
         1     0.001       2.0
$#   title     itype      beta        nu
ISO               -3       0.0     0.499
$#      k1        k2
   0.00236      1.75
$#   title     atype    intype        nf
ANISO             -1         0         1
$#   theta         a         b
       0.0       0.0       1.0
$#   ftype      fcid        k1        k2
         1         0   0.00049      9.01
$#      xp        yp        zp        a1        a2        a3      macf    unused
                                     1.0       0.0       0.0         1          
$#      v1        v2        v3        d1        d2        d3      beta       ref
                                     0.0       1.0       0.0                    
*DEFINE_CURVE_TITLE
$#                                                                         title
ca2+ of Right ventricle                                                         
$#    lcid      sidr       sfa       sfo      offa      offo    dattyp     lcint
         2         0       1.0       1.0       0.0       0.0         0     10000
$#                a1                  o1
                 0.0                 0.0
                 8.0 4.34999999999999964
                16.0 4.34999999999999964
                24.0 4.34999999999999964
                32.0 4.34999999999999964
                40.0 4.34999999999999964
                48.0 4.34999999999999964
                56.0 4.34999999999999964
                64.0 4.34999999999999964
                72.0 4.34999999999999964
                80.0 4.34999999999999964
                88.0 4.34999999999999964
                96.0 4.34999999999999964
               104.0 4.34999999999999964
               112.0 4.34999999999999964
               120.0 4.34999999999999964
               128.0 4.34999999999999964
               136.0 4.34999999999999964
               144.0 4.34999999999999964
               152.0 4.34999999999999964
$ ... 481 like lines cut
*MAT_295
$#     mid       rho      aopt
         2     0.001       2.0
$#   title     itype      beta        nu
ISO               -3       0.0     0.499
$#      k1        k2
   0.00236      1.75
$#   title     atype    intype        nf
ANISO             -1         0         1
$#   theta         a         b
       0.0       0.0       1.0
$#   ftype      fcid        k1        k2
         1         0   0.00049      9.01
$#      xp        yp        zp        a1        a2        a3      macf    unused
                                     1.0       0.0       0.0         1          
$#      v1        v2        v3        d1        d2        d3      beta       ref
                                     0.0       1.0       0.0                    
*DEFINE_CURVE_TITLE
$#                                                                         title
ca2+ of Septum                                                                  
$#    lcid      sidr       sfa       sfo      offa      offo    dattyp     lcint
         3         0       1.0       1.0       0.0       0.0         0     10000
$#                a1                  o1
                 0.0                 0.0
                 8.0 4.34999999999999964
                16.0 4.34999999999999964
                24.0 4.34999999999999964
                32.0 4.34999999999999964
                40.0 4.34999999999999964
                48.0 4.34999999999999964
                56.0 4.34999999999999964
                64.0 4.34999999999999964
                72.0 4.34999999999999964
                80.0 4.34999999999999964
                88.0 4.34999999999999964
                96.0 4.34999999999999964
               104.0 4.34999999999999964
               112.0 4.34999999999999964
               120.0 4.34999999999999964
               128.0 4.34999999999999964
               136.0 4.34999999999999964
               144.0 4.34999999999999964
               152.0 4.34999999999999964
$ ... 481 like lines cut
*MAT_295
$#     mid       rho      aopt
         3     0.001       2.0
$#   title     itype      beta        nu
ISO               -3       0.0     0.499
$#      k1        k2
   0.00236      1.75
$#   title     atype    intype        nf
ANISO             -1         0         1
$#   theta         a         b
       0.0       0.0       1.0
$#   ftype      fcid        k1        k2
         1         0   0.00049      9.01
$#      xp        yp        zp        a1        a2        a3      macf    unused
                                     1.0       0.0       0.0         1          
$#      v1        v2        v3        d1        d2        d3      beta       ref
                                     0.0       1.0       0.0                    
*MAT_077_H
$#     mid        ro        pr         n        nv         g      sigf       ref
         4     0.001     0.499         0                                     0.0
$#     c10       c01       c11       c20       c02       c30    therml
   0.01745                                                            
*MAT_077_H
$#     mid        ro        pr         n        nv         g      sigf       ref
         5     0.001     0.499         0                                     0.0
$#     c10       c01       c11       c20       c02       c30    therml
   0.01745                                                            
*MAT_077_H
$#     mid        ro        pr         n        nv         g      sigf       ref
         6     0.001     0.499         0                                     0.0
$#     c10       c01       c11       c20       c02       c30    therml
   0.01745                                                            
*MAT_077_H
$#     mid        ro        pr         n        nv         g      sigf       ref
         7     0.001     0.499         0                                     0.0
$#     c10       c01       c11       c20       c02       c30    therml
   0.01745                                                            
*END