*KEYWORD
$$ penalty with 0.25, 25 $$
*PART
$#                                                             heading
Pericardium                                                           
$#     pid     secid       mid     eosid      hgid      grav    adpopt      tmid
        21         4        11                                                  
*SECTION_DISCRETE
$#   secid       dro        kd        v0        cl        fd
         4         0       0.0       0.0       0.0       0.0
$#     cdl       tdl
       0.0       0.0
*MAT_SPRING_ELASTIC
$#     mid         k
        11    0.0005
*DEFINE_SD_ORIENTATION
$#     vid       iop        xt        yt        zt      nid1      nid2
       175         00.434029070.34977457-0.8302268                    
       176         00.412720620.36893031-0.8327978                    
       177         0 0.40488890.35026428-0.8446183                    
       178         0 0.9102391-0.15458580.38414595                    
       179         00.89143872-0.16238950.42304465                    
       180         00.89757431-0.13845590.41855758                    
       181         00.07306042-0.92659680.36889103                    
       182         00.59277999-0.72985890.34046692                    
       183         00.05429956-0.90191140.42849439                    
       184         0 -0.0266290.07838447-0.9965675                    
       185         0-0.04828190.08652252-0.9950792                    
       186         0-0.0711451 0.0425404-0.9965584                    
       187         0 0.69747770.36531195-0.6164997                    
       188         0 0.70429140.37705502-0.6015007                    
       189         00.676362450.38382021 -0.628662                    
       190         0-0.3188945-0.3667506-0.8739567                    
       191         0 -0.285699-0.3833703-0.8782957                    
       192         0-0.01756720.30185911-0.9531906                    
       193         00.818376420.30979398-0.4840328                    
       194         0 0.80521470.32328156  -0.49711                    
$ ... 5054 like lines cut
*ELEMENT_DISCRETE
$#   eid     pid      n1      n2     vid               s      pf          offset
     341      21   12319       0     1750.00723550983014                        
     342      21   12320       0     1760.00460284283198                        
     343      21   12321       0     1770.00610921442422                        
     344      21   12322       0     178 0.8521076464272                        
     345      21   12323       0     179 0.7596305098748                        
     346      21   12324       0     1800.71005454879828                        
     347      21   12325       0     181 0.5550478698298                        
     348      21   12326       0     1820.44477779970411                        
     349      21   12327       0     1830.51291068255068                        
     350      21   12328       0     1840.00238619090082                        
     351      21   12329       0     1850.00135253834528                        
     352      21   12330       0     1860.00152542720089                        
     353      21   12331       0     1870.01285229675983                        
     354      21   12332       0     1880.00952649211813                        
     355      21   12333       0     1890.00902153259116                        
     356      21   12334       0     1900.00449844183249                        
     357      21   12335       0     1910.00195912777998                        
     358      21   12336       0     1920.00356868246675                        
     359      21   12337       0     1930.01883919338664                        
     360      21   12338       0     1940.01256314812587                        
$ ... 5054 like lines cut
*END