*KEYWORD
$$ penalty with 0.25, 25 $$
*PART
$#                                                             heading
Pericardium                                                           
$#     pid     secid       mid     eosid      hgid      grav    adpopt      tmid
        21         4        11                                                  
*SECTION_DISCRETE
$#   secid       dro        kd        v0        cl        fd
         4         0       0.0       0.0       0.0       0.0
$#     cdl       tdl
       0.0       0.0
*MAT_SPRING_ELASTIC
$#     mid         k
        11    0.0005
*DEFINE_SD_ORIENTATION
$#     vid       iop        xt        yt        zt      nid1      nid2
       175         00.435081330.34975535 -0.829684                    
       176         00.412725540.36899117-0.8327683                    
       177         00.405112860.35043189-0.8444414                    
       178         00.91026229-0.15476570.38401863                    
       179         00.89140385-0.1624464  0.423096                    
       180         00.89757252-0.13845390.41856202                    
       181         00.09001266-0.91822870.38568622                    
       182         00.59172821-0.73068330.34052846                    
       183         00.05763832-0.90212260.42761275                    
       184         0-0.02744460.07763498-0.9966041                    
       185         0 -0.0482820.08644817-0.9950857                    
       186         0-0.07120240.04241297-0.9965597                    
       187         00.696138740.36579734 -0.617724                    
       188         00.703523280.37796521-0.6018283                    
       189         00.676278830.38389823-0.6287043                    
       190         0-0.3178287-0.3693222-0.8732618                    
       191         0-0.2854458-0.3839943-0.8781053                    
       192         0-0.01918780.30167288-0.9532184                    
       193         0 0.81826150.30996275-0.4841189                    
       194         0 0.8052085 0.3232908 -0.497114                    
$ ... 5054 like lines cut
*ELEMENT_DISCRETE
$#   eid     pid      n1      n2     vid               s      pf          offset
     341      21   12338       0     1750.00758059972601                        
     342      21   12339       0     1760.00465311451851                        
     343      21   12340       0     1770.00621925061353                        
     344      21   12341       0     1780.86813690200403                        
     345      21   12342       0     1790.76491209279067                        
     346      21   12343       0     1800.71259644380317                        
     347      21   12344       0     1810.39215189072532                        
     348      21   12345       0     1820.39588188526892                        
     349      21   12346       0     1830.45317249368145                        
     350      21   12347       0     1840.00229843529192                        
     351      21   12348       0     1850.00133987183451                        
     352      21   12349       0     1860.00148839199884                        
     353      21   12350       0     1870.01230135133739                        
     354      21   12351       0     1880.00920391867678                        
     355      21   12352       0     1890.00892341641288                        
     356      21   12353       0     1900.00384611991519                        
     357      21   12354       0     1910.00194804391452                        
     358      21   12355       0     1920.00364117838701                        
     359      21   12356       0     1930.01887692351797                        
     360      21   12357       0     194 0.0125833271639                        
$ ... 5054 like lines cut
*END