*KEYWORD
*PART
$#                                                             heading
SupportSpring                                                         
$#     pid     secid       mid     eosid      hgid      grav    adpopt      tmid
         8         3         5                                                  
*SECTION_DISCRETE
$#   secid       dro        kd        v0        cl        fd
         3         0       0.0       0.0       0.0       0.0
$#     cdl       tdl
       0.0       0.0
*MAT_SPRING_ELASTIC
$#     mid         k
         5     2e+13
$$ spring at aortic-valve$$
*DEFINE_SD_ORIENTATION
$#     vid       iop        xt        yt        zt      nid1      nid2
         1         00.722516770.28447544-0.6301137                    
*DEFINE_SD_ORIENTATION
$#     vid       iop        xt        yt        zt      nid1      nid2
         2         00.62736508-0.6532713  0.423851                    
         3         00.57659161-0.75119680.32131841                    
         4         00.51307561 -0.8317370.21205434                    
         5         00.43425092  -0.896020.09259763                    
         6         00.34042073-0.9396324-0.0347099                    
         7         0 0.2365144 -0.958002-0.1621514                    
         8         00.12731029-0.9505402-0.2833116                    
         9         00.01556364-0.9183628-0.3954333                    
        10         0-0.0967298-0.8621696-0.4972997                    
        11         0-0.1976805-0.7883061-0.5826627                    
        12         0-0.2872679-0.7051817-0.6482252                    
        13         0 -0.366122-0.6154178-0.6980083                    
        14         0-0.4360014-0.5196303-0.7347701                    
        15         0-0.5017286-0.4112021-0.7610396                    
        16         0-0.5588671 -0.296285 -0.774521                    
        17         0-0.6067609-0.1762707-0.7750935                    
        18         0-0.6445773 -0.053111-0.7626921                    
        19         0-0.67097430.06737865-0.7384129                    
        20         0-0.68621350.18066373-0.7046075                    
        21         0-0.69167570.28726689-0.6626179                    
$ ... 26 like lines cut
*ELEMENT_DISCRETE
$#   eid     pid      n1      n2     vid               s      pf          offset
       1       8     165       0       1 1.7083463294241                        
       2       8      20       0       1 1.7306863945444                        
       3       8    2398       0       1 1.7954771212075                        
       4       8    2494       0       1 2.0026490404846                        
       5       8    2495       0       1 1.4362357123533                        
       6       8    2506       0       1 1.5626956790735                        
       7       8    2507       0       1 1.6811081738729                        
       8       8    2479       0       1 1.7343275548184                        
       9       8    2480       0       1 2.0534378468596                        
      10       8    2509       0       1 1.4255129709568                        
      11       8    2510       0       1  1.600591195531                        
      12       8    2466       0       1  1.462406747172                        
      13       8    2467       0       1 1.3610394152338                        
      14       8    2615       0       1  1.985095034663                        
      15       8    2497       0       1 1.9290514583171                        
      16       8    2498       0       1 1.9937157179518                        
      17       8    2491       0       1 2.0323932781871                        
      18       8    2492       0       1 2.0779442082122                        
      19       8    2515       0       1 2.1955110634141                        
      20       8    2516       0       1 2.0494344153633                        
$ ... 26 like lines cut
*ELEMENT_DISCRETE
$#   eid     pid      n1      n2     vid               s      pf          offset
      47       8     165       0       2 3.4166926588482                        
      48       8      20       0       3 3.4613727890887                        
      49       8    2398       0       4  3.590954242415                        
      50       8    2494       0       5 4.0052980809691                        
      51       8    2495       0       6 2.8724714247067                        
      52       8    2506       0       7  3.125391358147                        
      53       8    2507       0       8 3.3622163477458                        
      54       8    2479       0       9 3.4686551096367                        
      55       8    2480       0      10 4.1068756937193                        
      56       8    2509       0      11 2.8510259419137                        
      57       8    2510       0      12  3.201182391062                        
      58       8    2466       0      13  2.924813494344                        
      59       8    2467       0      14 2.7220788304677                        
      60       8    2615       0      15  3.970190069326                        
      61       8    2497       0      16 3.8581029166342                        
      62       8    2498       0      17 3.9874314359037                        
      63       8    2491       0      18 4.0647865563742                        
      64       8    2492       0      19 4.1558884164244                        
      65       8    2515       0      20 4.3910221268281                        
      66       8    2516       0      21 4.0988688307266                        
$ ... 26 like lines cut
$$ spring at mitral-valve$$
*DEFINE_SD_ORIENTATION
$#     vid       iop        xt        yt        zt      nid1      nid2
        48         00.85054198-0.4310716-0.3012566                    
*DEFINE_SD_ORIENTATION
$#     vid       iop        xt        yt        zt      nid1      nid2
        49         0 0.35491470.04596206 0.9337682                    
        50         00.31521095-0.03872050.94823139                    
        51         00.27512183 -0.1238240.95340211                    
        52         00.23039316-0.2098822 0.9501939                    
        53         00.18339412-0.29414150.93800179                    
        54         00.13409067-0.37492420.91730667                    
        55         00.08643126-0.44950610.88908599                    
        56         00.03616113-0.52394410.85098473                    
        57         0-0.0089653-0.58486160.81108353                    
        58         0-0.0579096-0.64662570.76060617                    
        59         0 -0.116208-0.71209330.69240078                    
        60         0-0.1772359-0.77361420.60836547                    
        61         0-0.2397412-0.82607690.51002075                    
        62         0-0.3029189-0.86564010.39863193                    
        63         0-0.3560314-0.89350690.27365488                    
        64         0-0.4075621-0.90177580.14385285                    
        65         0-0.4485279-0.89370740.01047831                    
        66         0-0.4790584-0.8711107-0.1080243                    
        67         0-0.4992846-0.8410955 -0.208022                    
        68         0-0.5134933  -0.80293-0.3027011                    
$ ... 42 like lines cut
*ELEMENT_DISCRETE
$#   eid     pid      n1      n2     vid               s      pf          offset
      93       8    1407       0      48 1.8735229508637                        
      94       8    1312       0      48 2.1511138889977                        
      95       8    2401       0      48 1.8865592626409                        
      96       8    2518       0      48 1.8869162171399                        
      97       8    2519       0      48 1.9371894493736                        
      98       8    2599       0      48 1.5114276775029                        
      99       8    2524       0      48 1.7259223457453                        
     100       8    2525       0      48  1.636889273058                        
     101       8    2457       0      48 1.5344822472836                        
     102       8    2458       0      48  1.595942446616                        
     103       8    2500       0      48 1.7416943029538                        
     104       8    2501       0      48 1.7990433826234                        
     105       8    2601       0      48 1.7207641825657                        
     106       8    2444       0      48 1.6756133067398                        
     107       8    2445       0      48 1.6706110231606                        
     108       8    2441       0      48 1.6746065216642                        
     109       8    2442       0      48 1.7570029197262                        
     110       8    2473       0      48 1.7346489172713                        
     111       8    2474       0      48 1.6979034283279                        
     112       8    2584       0      48 1.6808162446752                        
$ ... 42 like lines cut
*ELEMENT_DISCRETE
$#   eid     pid      n1      n2     vid               s      pf          offset
     155       8    1407       0      49 3.7470459017274                        
     156       8    1312       0      50 4.3022277779955                        
     157       8    2401       0      51 3.7731185252819                        
     158       8    2518       0      52 3.7738324342799                        
     159       8    2519       0      53 3.8743788987473                        
     160       8    2599       0      54 3.0228553550058                        
     161       8    2524       0      55 3.4518446914906                        
     162       8    2525       0      56  3.273778546116                        
     163       8    2457       0      57 3.0689644945672                        
     164       8    2458       0      58  3.191884893232                        
     165       8    2500       0      59 3.4833886059077                        
     166       8    2501       0      60 3.5980867652468                        
     167       8    2601       0      61 3.4415283651314                        
     168       8    2444       0      62 3.3512266134796                        
     169       8    2445       0      63 3.3412220463212                        
     170       8    2441       0      64 3.3492130433284                        
     171       8    2442       0      65 3.5140058394523                        
     172       8    2473       0      66 3.4692978345427                        
     173       8    2474       0      67 3.3958068566558                        
     174       8    2584       0      68 3.3616324893505                        
$ ... 42 like lines cut
$$ spring at pulmonary-valve$$
*DEFINE_SD_ORIENTATION
$#     vid       iop        xt        yt        zt      nid1      nid2
       111         00.41468108-0.5996757-0.6844184                    
*DEFINE_SD_ORIENTATION
$#     vid       iop        xt        yt        zt      nid1      nid2
       112         0-0.8840187-0.0839607-0.4598495                    
       113         0-0.84776920.02079991-0.5299572                    
       114         0-0.79427610.12986923-0.5935144                    
       115         0-0.71635570.24950954-0.6515976                    
       116         0-0.61473590.37032758-0.6963887                    
       117         0 -0.4968460.47839032-0.7240765                    
       118         0-0.37889290.56980573-0.7292199                    
       119         0-0.26116340.64158845-0.7212198                    
       120         0-0.15840130.69246019-0.7038522                    
       121         0-0.07176380.72752106-0.6823218                    
       122         0-0.00247030.72174804-0.6921515                    
       123         00.043546090.77773897-0.6270772                    
       124         00.100271440.77677527-0.6217442                    
       125         00.175292160.78968405-0.5879386                    
       126         00.249125230.79710306-0.5500576                    
       127         0 0.31835790.79937192-0.5095614                    
       128         00.381822620.79697283-0.4680233                    
       129         00.453811310.78687356-0.4181929                    
       130         00.519418720.77213682-0.3660723                    
       131         0 0.58420380.75073582-0.3083856                    
$ ... 41 like lines cut
*ELEMENT_DISCRETE
$#   eid     pid      n1      n2     vid               s      pf          offset
     217       8   10287       0     111 1.5773436185984                        
     218       8   10288       0     111 1.4426751420374                        
     219       8   10323       0     111 1.5416660670437                        
     220       8   10324       0     111 1.5476586572891                        
     221       8   10329       0     111 1.5673441836631                        
     222       8   10330       0     111 1.5112188824156                        
     223       8   10443       0     111 1.3599133363169                        
     224       8   10314       0     111 1.5569559310682                        
     225       8   10315       0     111 1.5311427281867                        
     226       8   10495       0     111 1.5846440106771                        
     227       8   10492       0     111 1.3479494959237                        
     228       8   10427       0     1110.95409432310592                        
     229       8   10368       0     111  1.258099679714                        
     230       8   10369       0     111 1.4154950196778                        
     231       8   10332       0     111 2.0663681603886                        
     232       8   10333       0     111 1.3063245646093                        
     233       8   10398       0     111 2.1064799461494                        
     234       8   10311       0     111 1.7355347252349                        
     235       8   10312       0     111 1.6152861144872                        
     236       8   10299       0     111 1.6274252237862                        
$ ... 41 like lines cut
*ELEMENT_DISCRETE
$#   eid     pid      n1      n2     vid               s      pf          offset
     278       8   10287       0     112 3.1546872371968                        
     279       8   10288       0     113 2.8853502840747                        
     280       8   10323       0     114 3.0833321340875                        
     281       8   10324       0     115 3.0953173145782                        
     282       8   10329       0     116 3.1346883673261                        
     283       8   10330       0     117 3.0224377648312                        
     284       8   10443       0     118 2.7198266726338                        
     285       8   10314       0     119 3.1139118621364                        
     286       8   10315       0     120 3.0622854563733                        
     287       8   10495       0     121 3.1692880213543                        
     288       8   10492       0     122 2.6958989918474                        
     289       8   10427       0     123 1.9081886462118                        
     290       8   10368       0     124 2.5161993594279                        
     291       8   10369       0     125 2.8309900393556                        
     292       8   10332       0     126 4.1327363207772                        
     293       8   10333       0     127 2.6126491292185                        
     294       8   10398       0     128 4.2129598922989                        
     295       8   10311       0     129 3.4710694504698                        
     296       8   10312       0     130 3.2305722289744                        
     297       8   10299       0     131 3.2548504475725                        
$ ... 41 like lines cut
$$ spring at tricuspid-valve$$
*DEFINE_SD_ORIENTATION
$#     vid       iop        xt        yt        zt      nid1      nid2
       173         00.75166901 -0.614355  -0.23992                    
*DEFINE_SD_ORIENTATION
$#     vid       iop        xt        yt        zt      nid1      nid2
       174         0-0.16523570.17671394-0.9702934                    
       175         0-0.1195214 0.2308266-0.9656261                    
       176         0-0.07313590.28385234-0.9560748                    
       177         0-0.02675340.33503962-0.9418241                    
       178         00.01967025 0.3844631-0.9229308                    
       179         00.065932390.43191656-0.8995004                    
       180         00.111977210.47734002-0.8715547                    
       181         00.158118790.52099807-0.8387845                    
       182         00.203489050.56202649-0.8016972                    
       183         00.24780833 0.6001701-0.7605175                    
       184         00.290143010.63352434-0.7172614                    
       185         00.331864720.66567019-0.6683929                    
       186         00.37174251  0.695808-0.6145394                    
       187         00.411843870.72151817-0.5565934                    
       188         0 0.44808040.74471523 -0.494594                    
       189         0 0.48518270.76050485-0.4315439                    
       190         00.518378780.77380838 -0.364011                    
       191         00.547476920.78403223-0.2925107                    
       192         00.574515410.78854813-0.2193716                    
       193         00.598147650.78824081-0.1445538                    
$ ... 64 like lines cut
*ELEMENT_DISCRETE
$#   eid     pid      n1      n2     vid               s      pf          offset
     339       8   11929       0     173 1.7000245517381                        
     340       8   11888       0     173 1.8002778000818                        
     341       8   11889       0     173 1.8501763490831                        
     342       8   11903       0     173 1.8406699471682                        
     343       8   11904       0     173 1.8358714777831                        
     344       8   11873       0     173 1.8193120844167                        
     345       8   11874       0     173 1.7814418009265                        
     346       8   11870       0     173 1.7550546393823                        
     347       8   11871       0     173 1.8003106144309                        
     348       8   11976       0     173 1.7580255667216                        
     349       8   11894       0     173 1.7194591053903                        
     350       8   11895       0     173 1.7780706327819                        
     351       8   11857       0     173 1.8147475873373                        
     352       8   11858       0     173 1.8106408302544                        
     353       8   11979       0     173 1.8049516640203                        
     354       8   11876       0     173  1.944680852794                        
     355       8   11877       0     173  1.679654497802                        
     356       8   11990       0     173 1.3088941868111                        
     357       8   11867       0     173 1.4978877292596                        
     358       8   11868       0     173 1.5428176134899                        
$ ... 64 like lines cut
*ELEMENT_DISCRETE
$#   eid     pid      n1      n2     vid               s      pf          offset
     423       8   11929       0     174 3.4000491034762                        
     424       8   11888       0     175 3.6005556001637                        
     425       8   11889       0     176 3.7003526981661                        
     426       8   11903       0     177 3.6813398943364                        
     427       8   11904       0     178 3.6717429555663                        
     428       8   11873       0     179 3.6386241688334                        
     429       8   11874       0     180 3.5628836018529                        
     430       8   11870       0     181 3.5101092787645                        
     431       8   11871       0     182 3.6006212288618                        
     432       8   11976       0     183 3.5160511334431                        
     433       8   11894       0     184 3.4389182107805                        
     434       8   11895       0     185 3.5561412655639                        
     435       8   11857       0     186 3.6294951746745                        
     436       8   11858       0     187 3.6212816605087                        
     437       8   11979       0     188 3.6099033280406                        
     438       8   11876       0     189  3.889361705588                        
     439       8   11877       0     190  3.359308995604                        
     440       8   11990       0     191 2.6177883736221                        
     441       8   11867       0     192 2.9957754585191                        
     442       8   11868       0     193 3.0856352269798                        
$ ... 64 like lines cut
*END