*KEYWORD
*MAT_RIGID
$#     mid        ro         e        pr         n    couple         m     alias
         4     0.001       1.0                 0.0       0.0       0.0          
$#     cmo      con1      con2
       0.0                    
$#co_or_a1        a2        a3        v1        v2        v3
                                                            
*SECTION_SHELL
$#   secid    elform      shrf       nip     propt   qr_irid     icomp     setyp
         2         4    0.8333         3       1.0         0         0         1
$#      t1        t2        t3        t4      nloc     marea      idof    edgset
       1.0       0.0       0.0       0.0       0.0       0.0       0.0         0
*PART
$#                                                             heading
aortic-valve                                                          
$#     pid     secid       mid     eosid      hgid      grav    adpopt      tmid
         4         2         4                                                  
*PART
$#                                                             heading
mitral-valve                                                          
$#     pid     secid       mid     eosid      hgid      grav    adpopt      tmid
         5         2         4                                                  
*PART
$#                                                             heading
pulmonary-valve                                                       
$#     pid     secid       mid     eosid      hgid      grav    adpopt      tmid
         6         2         4                                                  
*PART
$#                                                             heading
tricuspid-valve                                                       
$#     pid     secid       mid     eosid      hgid      grav    adpopt      tmid
         7         2         4                                                  
*ELEMENT_SHELL
$#   eid     pid      n1      n2      n3      n4      n5      n6      n7      n8
       1       4   49830     165      17                                        
       2       4   49830     149     165                                        
       3       4   49830     148     149                                        
       4       4   49830     152     148                                        
       5       4   49830     151     152                                        
       6       4   49830      27     151                                        
       7       4   49830    2419      27                                        
       8       4   49830    2632    2419                                        
       9       4   49830    2554    2632                                        
      10       4   49830    2553    2554                                        
      11       4   49830    2548    2553                                        
      12       4   49830    2547    2548                                        
      13       4   49830    2491    2547                                        
      14       4   49830    2490    2491                                        
      15       4   49830    2509    2490                                        
      16       4   49830    2508    2509                                        
      17       4   49830    2607    2508                                        
      18       4   49830    2481    2607                                        
      19       4   49830    2480    2481                                        
      20       4   49830    2475    2480                                        
$ ... 26 like lines cut
*ELEMENT_SHELL
$#   eid     pid      n1      n2      n3      n4      n5      n6      n7      n8
      47       5   49831    1439    1317                                        
      48       5   49831    1317    2424                                        
      49       5   49831    2424    2538                                        
      50       5   49831    2538    2539                                        
      51       5   49831    2539    2635                                        
      52       5   49831    2635    2541                                        
      53       5   49831    2541    2542                                        
      54       5   49831    2542    2477                                        
      55       5   49831    2477    2478                                        
      56       5   49831    2478    2520                                        
      57       5   49831    2520    2521                                        
      58       5   49831    2521    2617                                        
      59       5   49831    2617    2464                                        
      60       5   49831    2464    2465                                        
      61       5   49831    2465    2461                                        
      62       5   49831    2461    2462                                        
      63       5   49831    2462    2493                                        
      64       5   49831    2493    2494                                        
      65       5   49831    2494    2601                                        
      66       5   49831    2601    2499                                        
$ ... 42 like lines cut
*ELEMENT_SHELL
$#   eid     pid      n1      n2      n3      n4      n5      n6      n7      n8
     109       6   49832   10260   10258                                        
     110       6   49832   10259   10260                                        
     111       6   49832   10365   10259                                        
     112       6   49832   10364   10365                                        
     113       6   49832   10335   10364                                        
     114       6   49832   10334   10335                                        
     115       6   49832   10458   10334                                        
     116       6   49832   10308   10458                                        
     117       6   49832   10307   10308                                        
     118       6   49832   10380   10307                                        
     119       6   49832   10379   10380                                        
     120       6   49832   10455   10379                                        
     121       6   49832   10454   10455                                        
     122       6   49832   10424   10454                                        
     123       6   49832   10423   10424                                        
     124       6   49832   10347   10423                                        
     125       6   49832   10346   10347                                        
     126       6   49832   10359   10346                                        
     127       6   49832   10358   10359                                        
     128       6   49832   10344   10358                                        
$ ... 41 like lines cut
*ELEMENT_SHELL
$#   eid     pid      n1      n2      n3      n4      n5      n6      n7      n8
     170       7   49833   11730   11731                                        
     171       7   49833   14046   11730                                        
     172       7   49833   13998   14046                                        
     173       7   49833   13997   13998                                        
     174       7   49833   14013   13997                                        
     175       7   49833   14012   14013                                        
     176       7   49833   13981   14012                                        
     177       7   49833   13980   13981                                        
     178       7   49833   14010   13980                                        
     179       7   49833   14009   14010                                        
     180       7   49833   14076   14009                                        
     181       7   49833   14030   14076                                        
     182       7   49833   14029   14030                                        
     183       7   49833   14007   14029                                        
     184       7   49833   14006   14007                                        
     185       7   49833   14085   14006                                        
     186       7   49833   14004   14085                                        
     187       7   49833   14003   14004                                        
     188       7   49833   14019   14003                                        
     189       7   49833   14018   14019                                        
$ ... 64 like lines cut
*END